version 3
run General-0-20220718-16:46:37-27268
attr configname General
attr datetime 20220718-16:46:37
attr datetimef 20220718-164637
attr experiment General
attr inifile omnetpp.ini
attr iterationvars ""
attr iterationvarsd ""
attr iterationvarsf ""
attr measurement ""
attr network Static
attr processid 27268
attr repetition 0
attr replication #0
attr resultdir results
attr runnumber 0
attr seedset 0
config image-path ../inet4.4/images
config description "Static Random Network"
config network Static
config sim-time-limit 1000s
config *.numHosts 25
config *.visualizer.sceneVisualizer.descriptionFigure "\"title\""
config *.visualizer.mediumVisualizer.displaySignals true
config *.visualizer.physicalLinkVisualizer.displayLinks true
config *.visualizer.physicalLinkVisualizer.packetFilter "\"UDPData*\""
config *.host*.ipv4.arp.typename GlobalArp
config **.**.bitrate 11Mbps
config *.host*.wlan[0].radio.typename UnitDiskRadio
config *.host*.wlan[0].radio.transmitter.communicationRange 500m
config *.host*.wlan[0].radio.receiver.ignoreInterference true
config *.host*.wlan[0].typename AckingWirelessInterface
config *.host*.wlan[0].mac.typename Ieee80211Mac
config *.host[*].forwarding true
config *.configurator.config "xml(\"<config><interface hosts='**' address='10.0.0.x' netmask='255.255.255.0'/><autoroute metric='errorRate'/></config>\")"
config *.configurator.optimizeRoutes false
config *.host[*].ipv4.routingTable.netmaskRoutes "\"\""
config *.visualizer.dataLinkVisualizer.displayLinks true
config *.visualizer.networkRouteVisualizer.displayRoutes true
config *.visualizer.*LinkVisualizer.lineShift 0
config *.visualizer.networkRouteVisualizer.lineShift 0
config *.visualizer.networkRouteVisualizer.packetFilter "\"UDPData*\""
config *.host[*].numApps 1
config *.host[*].app[0].typename UdpBasicApp
config *.host[*].app[0].destAddresses "\"host[24]\""
config *.host[*].app[0].destPort 5000
config *.host[*].app[0].messageLength 1000B
config *.host[*].app[0].sendInterval exponential(12ms)
config *.host[*].app[0].packetName "\"UDPData\""
config *.host[*].app[0].localPort 5000
config *.host[*].mobility.typename StationaryMobility
config *.host[*].mobility.initFromDisplayString false
config *.host[*].mobility.constraintAreaMaxX 1000m
config *.host[*].mobility.constraintAreaMinX 0m
config *.host[*].mobility.constraintAreaMaxY 1000m
config *.host[*].mobility.constraintAreaMinY 0m
config *.host[*].mobility.constraintAreaMinZ 0m
config *.host[*].mobility.constraintAreaMaxZ 0m

par Static.visualizer.sceneVisualizer typename "\"inet.visualizer.canvas.scene.SceneCanvasVisualizer\""
par Static.visualizer.sceneVisualizer visualizationTargetModule "\"^.^\""
par Static.visualizer.sceneVisualizer visualizationSubjectModule "\"^.^\""
par Static.visualizer.sceneVisualizer tags "\"\""
par Static.visualizer.sceneVisualizer physicalEnvironmentModule "\"physicalEnvironment\""
par Static.visualizer.sceneVisualizer networkNodeVisualizerModule "\"^.networkNodeVisualizer\""
par Static.visualizer.sceneVisualizer axisLength "nan m"
attr mutable ""
attr unit m
par Static.visualizer.sceneVisualizer animationSpeed 0
par Static.visualizer.sceneVisualizer sceneMinX "nan m"
attr unit m
par Static.visualizer.sceneVisualizer sceneMinY "nan m"
attr unit m
par Static.visualizer.sceneVisualizer sceneMinZ "nan m"
attr unit m
par Static.visualizer.sceneVisualizer sceneMaxX "nan m"
attr unit m
par Static.visualizer.sceneVisualizer sceneMaxY "nan m"
attr unit m
par Static.visualizer.sceneVisualizer sceneMaxZ "nan m"
attr unit m
par Static.visualizer.sceneVisualizer zIndex 0
par Static.visualizer.sceneVisualizer viewAngle "\"x right y down z out\""
attr mutable ""
par Static.visualizer.sceneVisualizer viewScale "\"1 1\""
attr mutable ""
par Static.visualizer.sceneVisualizer viewTranslation "\"0 0\""
attr mutable ""
par Static.visualizer.sceneVisualizer descriptionFigure "\"title\""
par Static.visualizer.physicalEnvironmentVisualizer typename "\"inet.visualizer.canvas.environment.PhysicalEnvironmentCanvasVisualizer\""
par Static.visualizer.physicalEnvironmentVisualizer visualizationTargetModule "\"^.^\""
par Static.visualizer.physicalEnvironmentVisualizer visualizationSubjectModule "\"^.^\""
par Static.visualizer.physicalEnvironmentVisualizer tags "\"\""
par Static.visualizer.physicalEnvironmentVisualizer physicalEnvironmentModule "\"physicalEnvironment\""
par Static.visualizer.physicalEnvironmentVisualizer displayObjects true
par Static.visualizer.physicalEnvironmentVisualizer zIndex 0
par Static.visualizer.networkNodeVisualizer typename "\"inet.visualizer.canvas.scene.NetworkNodeCanvasVisualizer\""
par Static.visualizer.networkNodeVisualizer visualizationTargetModule "\"^.^\""
par Static.visualizer.networkNodeVisualizer visualizationSubjectModule "\"^.^\""
par Static.visualizer.networkNodeVisualizer tags "\"\""
par Static.visualizer.networkNodeVisualizer nodeFilter "\"*\""
attr mutable ""
par Static.visualizer.networkNodeVisualizer annotationSpacing 4
par Static.visualizer.networkNodeVisualizer placementPenalty 10
par Static.visualizer.networkNodeVisualizer zIndex 0
par Static.visualizer.networkConnectionVisualizer typename "\"inet.visualizer.canvas.scene.NetworkConnectionCanvasVisualizer\""
par Static.visualizer.networkConnectionVisualizer visualizationTargetModule "\"^.^\""
par Static.visualizer.networkConnectionVisualizer visualizationSubjectModule "\"^.^\""
par Static.visualizer.networkConnectionVisualizer tags "\"\""
par Static.visualizer.networkConnectionVisualizer displayNetworkConnections true
par Static.visualizer.networkConnectionVisualizer nodeFilter "\"\""
attr mutable ""
par Static.visualizer.networkConnectionVisualizer lineColor "\"black\""
par Static.visualizer.networkConnectionVisualizer lineStyle "\"solid\""
par Static.visualizer.networkConnectionVisualizer lineWidth 1
par Static.visualizer.networkConnectionVisualizer zIndex 0
par Static.visualizer.mobilityVisualizer typename "\"inet.visualizer.canvas.mobility.MobilityCanvasVisualizer\""
par Static.visualizer.mobilityVisualizer visualizationTargetModule "\"^.^\""
par Static.visualizer.mobilityVisualizer visualizationSubjectModule "\"^.^\""
par Static.visualizer.mobilityVisualizer tags "\"\""
par Static.visualizer.mobilityVisualizer networkNodeVisualizerModule "\"^.networkNodeVisualizer\""
par Static.visualizer.mobilityVisualizer displayMobility true
par Static.visualizer.mobilityVisualizer animationSpeed 0
par Static.visualizer.mobilityVisualizer moduleFilter "\"**.mobility\""
attr mutable ""
par Static.visualizer.mobilityVisualizer displayPositions false
par Static.visualizer.mobilityVisualizer positionCircleRadius 4
par Static.visualizer.mobilityVisualizer positionCircleLineWidth 1
par Static.visualizer.mobilityVisualizer positionCircleLineColor "\"dark\""
attr enum light,dark
par Static.visualizer.mobilityVisualizer positionCircleFillColor "\"dark\""
attr enum light,dark
par Static.visualizer.mobilityVisualizer displayOrientations false
par Static.visualizer.mobilityVisualizer orientationPieRadius 32
par Static.visualizer.mobilityVisualizer orientationPieSize 0.2
par Static.visualizer.mobilityVisualizer orientationPieOpacity 0.25
par Static.visualizer.mobilityVisualizer orientationLineColor "\"black\""
par Static.visualizer.mobilityVisualizer orientationLineStyle "\"solid\""
par Static.visualizer.mobilityVisualizer orientationLineWidth 1
par Static.visualizer.mobilityVisualizer orientationFillColor "\"blue\""
par Static.visualizer.mobilityVisualizer displayVelocities false
par Static.visualizer.mobilityVisualizer velocityArrowScale 1
par Static.visualizer.mobilityVisualizer velocityLineColor "\"black\""
par Static.visualizer.mobilityVisualizer velocityLineStyle "\"solid\""
par Static.visualizer.mobilityVisualizer velocityLineWidth 1
par Static.visualizer.mobilityVisualizer displayMovementTrails false
par Static.visualizer.mobilityVisualizer movementTrailLineColor "\"dark\""
attr enum light,dark
par Static.visualizer.mobilityVisualizer movementTrailLineStyle "\"solid\""
par Static.visualizer.mobilityVisualizer movementTrailLineWidth 1
par Static.visualizer.mobilityVisualizer trailLength 100
par Static.visualizer.mobilityVisualizer zIndex 0
par Static.visualizer.statisticVisualizer typename "\"inet.visualizer.canvas.common.StatisticCanvasVisualizer\""
par Static.visualizer.statisticVisualizer visualizationTargetModule "\"^.^\""
par Static.visualizer.statisticVisualizer visualizationSubjectModule "\"^.^\""
par Static.visualizer.statisticVisualizer tags "\"\""
par Static.visualizer.statisticVisualizer networkNodeVisualizerModule "\"^.networkNodeVisualizer\""
par Static.visualizer.statisticVisualizer displayStatistics true
par Static.visualizer.statisticVisualizer signalName "\"\""
par Static.visualizer.statisticVisualizer statisticName "\"\""
par Static.visualizer.statisticVisualizer statisticUnit "\"\""
par Static.visualizer.statisticVisualizer statisticExpression "\"\""
par Static.visualizer.statisticVisualizer sourceFilter "\"**\""
attr mutable ""
par Static.visualizer.statisticVisualizer format "\"%n: %v %u\""
attr mutable ""
par Static.visualizer.statisticVisualizer unit "\"\""
par Static.visualizer.statisticVisualizer font "\"<default>\""
par Static.visualizer.statisticVisualizer textColor "\"black\""
par Static.visualizer.statisticVisualizer backgroundColor "\"white\""
par Static.visualizer.statisticVisualizer opacity 1
par Static.visualizer.statisticVisualizer placementHint "\"top\""
par Static.visualizer.statisticVisualizer placementPriority 0
par Static.visualizer.statisticVisualizer zIndex 10
par Static.visualizer.statisticVisualizer propertyName "\"\""
par Static.visualizer.statisticVisualizer propertyIndex "\"\""
par Static.visualizer.infoVisualizer typename "\"inet.visualizer.canvas.common.InfoCanvasVisualizer\""
par Static.visualizer.infoVisualizer visualizationTargetModule "\"^.^\""
par Static.visualizer.infoVisualizer visualizationSubjectModule "\"^.^\""
par Static.visualizer.infoVisualizer tags "\"\""
par Static.visualizer.infoVisualizer networkNodeVisualizerModule "\"^.networkNodeVisualizer\""
par Static.visualizer.infoVisualizer displayInfos true
par Static.visualizer.infoVisualizer modules "\"\""
attr mutable ""
par Static.visualizer.infoVisualizer format "\"%t\""
attr mutable ""
par Static.visualizer.infoVisualizer font "\"<default>\""
par Static.visualizer.infoVisualizer textColor "\"black\""
par Static.visualizer.infoVisualizer backgroundColor "\"white\""
par Static.visualizer.infoVisualizer opacity 1
par Static.visualizer.infoVisualizer placementHint "\"top\""
par Static.visualizer.infoVisualizer placementPriority 0
par Static.visualizer.infoVisualizer zIndex 10
par Static.visualizer.energyStorageVisualizer typename "\"inet.visualizer.canvas.power.EnergyStorageCanvasVisualizer\""
par Static.visualizer.energyStorageVisualizer visualizationTargetModule "\"^.^\""
par Static.visualizer.energyStorageVisualizer visualizationSubjectModule "\"^.^\""
par Static.visualizer.energyStorageVisualizer tags "\"\""
par Static.visualizer.energyStorageVisualizer networkNodeVisualizerModule "\"^.networkNodeVisualizer\""
par Static.visualizer.energyStorageVisualizer displayEnergyStorages false
par Static.visualizer.energyStorageVisualizer energyStorageFilter "\"**\""
par Static.visualizer.energyStorageVisualizer color "\"green\""
par Static.visualizer.energyStorageVisualizer width 8
par Static.visualizer.energyStorageVisualizer height 24
par Static.visualizer.energyStorageVisualizer spacing 2
par Static.visualizer.energyStorageVisualizer placementHint "\"right\""
par Static.visualizer.energyStorageVisualizer placementPriority 0
par Static.visualizer.energyStorageVisualizer zIndex 10
par Static.visualizer.mediumVisualizer typename "\"inet.visualizer.canvas.physicallayer.MediumCanvasVisualizer\""
par Static.visualizer.mediumVisualizer visualizationTargetModule "\"^.^\""
par Static.visualizer.mediumVisualizer visualizationSubjectModule "\"^.^\""
par Static.visualizer.mediumVisualizer tags "\"\""
par Static.visualizer.mediumVisualizer mediumModule "\"radioMedium\""
par Static.visualizer.mediumVisualizer networkNodeVisualizerModule "\"^.networkNodeVisualizer\""
par Static.visualizer.mediumVisualizer nodeFilter "\"*\""
attr mutable ""
par Static.visualizer.mediumVisualizer interfaceFilter "\"*\""
attr mutable ""
par Static.visualizer.mediumVisualizer packetFilter "(omnetpp::cValueHolder)holder: \"*\""
attr mutable ""
par Static.visualizer.mediumVisualizer displaySignals true
par Static.visualizer.mediumVisualizer signalColor "\"dark\""
attr enum light,dark
par Static.visualizer.mediumVisualizer signalPropagationAnimationSpeed "nan "
attr mutable ""
par Static.visualizer.mediumVisualizer signalPropagationAnimationTime 1s
attr unit s
par Static.visualizer.mediumVisualizer signalPropagationAdditionalTime 0s
attr unit s
par Static.visualizer.mediumVisualizer signalTransmissionAnimationSpeed "nan "
attr mutable ""
par Static.visualizer.mediumVisualizer signalTransmissionAnimationTime 1s
attr unit s
par Static.visualizer.mediumVisualizer signalAnimationSpeedChangeTimeMode "\"realTime\""
attr enum realTime,animationTime,simulationTime
par Static.visualizer.mediumVisualizer signalAnimationSpeedChangeTime 1s
attr unit s
par Static.visualizer.mediumVisualizer displaySignalDepartures false
par Static.visualizer.mediumVisualizer signalDepartureImage "\"misc/signal_departure.png\""
par Static.visualizer.mediumVisualizer signalDeparturePlacementHint "\"topCenter\""
par Static.visualizer.mediumVisualizer signalDeparturePlacementPriority 1
par Static.visualizer.mediumVisualizer displaySignalArrivals false
par Static.visualizer.mediumVisualizer signalArrivalImage "\"misc/signal_arrival.png\""
par Static.visualizer.mediumVisualizer signalArrivalPlacementHint "\"topCenter\""
par Static.visualizer.mediumVisualizer signalArrivalPlacementPriority -1
par Static.visualizer.mediumVisualizer displayCommunicationRanges false
par Static.visualizer.mediumVisualizer communicationRangeLineColor "\"blue\""
par Static.visualizer.mediumVisualizer communicationRangeLineStyle "\"solid\""
par Static.visualizer.mediumVisualizer communicationRangeLineWidth 1
par Static.visualizer.mediumVisualizer displayInterferenceRanges false
par Static.visualizer.mediumVisualizer interferenceRangeLineColor "\"gray\""
par Static.visualizer.mediumVisualizer interferenceRangeLineStyle "\"solid\""
par Static.visualizer.mediumVisualizer interferenceRangeLineWidth 1
par Static.visualizer.mediumVisualizer autoPowerAxis true
par Static.visualizer.mediumVisualizer signalMinPower "inf dBmW"
attr unit dBmW
par Static.visualizer.mediumVisualizer signalMaxPower 0dBmW
attr unit dBmW
par Static.visualizer.mediumVisualizer signalMinPowerDensity "inf dBmWpMHz"
attr unit dBmWpMHz
par Static.visualizer.mediumVisualizer signalMaxPowerDensity "-inf dBmWpMHz"
attr unit dBmWpMHz
par Static.visualizer.mediumVisualizer autoTimeAxis true
par Static.visualizer.mediumVisualizer signalMinTime 0s
attr unit s
par Static.visualizer.mediumVisualizer signalMaxTime 0s
attr unit s
par Static.visualizer.mediumVisualizer autoFrequencyAxis true
par Static.visualizer.mediumVisualizer signalMinFrequency "inf Hz"
attr unit Hz
par Static.visualizer.mediumVisualizer signalMaxFrequency "-inf Hz"
attr unit Hz
par Static.visualizer.mediumVisualizer displayMainPowerDensityMap false
par Static.visualizer.mediumVisualizer mainPowerDensityMapPixmapDensity 1
par Static.visualizer.mediumVisualizer mainPowerDensityMapMinX 0
par Static.visualizer.mediumVisualizer mainPowerDensityMapMaxX "nan "
par Static.visualizer.mediumVisualizer mainPowerDensityMapMinY 0
par Static.visualizer.mediumVisualizer mainPowerDensityMapMaxY "nan "
par Static.visualizer.mediumVisualizer mainPowerDensityMapZ 0
par Static.visualizer.mediumVisualizer mainPowerDensityMapFigureXTickCount 3
par Static.visualizer.mediumVisualizer mainPowerDensityMapFigureYTickCount 3
par Static.visualizer.mediumVisualizer displayPowerDensityMaps false
par Static.visualizer.mediumVisualizer powerDensityMapMode "\"auto\""
attr enum total,signal,auto
par Static.visualizer.mediumVisualizer powerDensityMapPixelMode "\"mean\""
attr enum sample,partition,mean
par Static.visualizer.mediumVisualizer powerDensityMapApproximationSize 10
par Static.visualizer.mediumVisualizer powerDensityMapCenterFrequency "nan Hz"
attr mutable ""
attr unit Hz
par Static.visualizer.mediumVisualizer powerDensityMapBandwidth 0Hz
attr mutable ""
attr unit Hz
par Static.visualizer.mediumVisualizer powerDensityMapFigureWidth 200
par Static.visualizer.mediumVisualizer powerDensityMapFigureHeight 120
par Static.visualizer.mediumVisualizer powerDensityMapPixmapWidth 200
par Static.visualizer.mediumVisualizer powerDensityMapPixmapHeight 120
par Static.visualizer.mediumVisualizer powerDensityMapZ 0
par Static.visualizer.mediumVisualizer powerDensityMapFigureXTickCount 3
par Static.visualizer.mediumVisualizer powerDensityMapFigureYTickCount 3
par Static.visualizer.mediumVisualizer displaySpectrums false
par Static.visualizer.mediumVisualizer spectrumMode "\"auto\""
attr enum total,signal,auto
par Static.visualizer.mediumVisualizer spectrumFigureWidth 200
par Static.visualizer.mediumVisualizer spectrumFigureHeight 120
par Static.visualizer.mediumVisualizer spectrumFigureXTickCount 3
par Static.visualizer.mediumVisualizer spectrumFigureYTickCount 5
par Static.visualizer.mediumVisualizer spectrumFigureInterpolationSize 5
par Static.visualizer.mediumVisualizer spectrumPlacementHint "\"bottomCenter\""
par Static.visualizer.mediumVisualizer spectrumPlacementPriority -1
par Static.visualizer.mediumVisualizer displaySpectrograms false
par Static.visualizer.mediumVisualizer spectrogramMode "\"auto\""
attr enum total,signal,auto
par Static.visualizer.mediumVisualizer spectrogramPixelMode "\"mean\""
attr enum sample,partition,mean
par Static.visualizer.mediumVisualizer spectrogramFigureWidth 200
par Static.visualizer.mediumVisualizer spectrogramFigureHeight 120
par Static.visualizer.mediumVisualizer spectrogramPixmapWidth 200
par Static.visualizer.mediumVisualizer spectrogramPixmapHeight 120
par Static.visualizer.mediumVisualizer spectrogramFigureXTickCount 3
par Static.visualizer.mediumVisualizer spectrogramFigureYTickCount 5
par Static.visualizer.mediumVisualizer spectrogramPlacementHint "\"bottomCenter\""
par Static.visualizer.mediumVisualizer spectrogramPlacementPriority -1
par Static.visualizer.mediumVisualizer zIndex 0
par Static.visualizer.mediumVisualizer signalShape "\"ring\""
attr enum ring,sphere
par Static.visualizer.mediumVisualizer signalOpacity 0.5
par Static.visualizer.mediumVisualizer signalRingCount 20
par Static.visualizer.mediumVisualizer signalRingSize 50m
attr unit m
par Static.visualizer.mediumVisualizer signalFadingDistance 50m
attr unit m
par Static.visualizer.mediumVisualizer signalFadingFactor 1.2
par Static.visualizer.mediumVisualizer signalWaveCount 20
par Static.visualizer.mediumVisualizer signalWaveLength 50m
attr unit m
par Static.visualizer.mediumVisualizer signalWaveWidth 10m
attr unit m
par Static.visualizer.mediumVisualizer signalWaveFadingAnimationSpeedFactor 1
par Static.visualizer.mediumVisualizer displayCommunicationHeat false
par Static.visualizer.obstacleLossVisualizer typename "\"inet.visualizer.canvas.physicallayer.TracingObstacleLossCanvasVisualizer\""
par Static.visualizer.obstacleLossVisualizer visualizationTargetModule "\"^.^\""
par Static.visualizer.obstacleLossVisualizer visualizationSubjectModule "\"^.^\""
par Static.visualizer.obstacleLossVisualizer tags "\"\""
par Static.visualizer.obstacleLossVisualizer displayIntersections false
par Static.visualizer.obstacleLossVisualizer intersectionLineColor "\"red\""
par Static.visualizer.obstacleLossVisualizer intersectionLineStyle "\"solid\""
par Static.visualizer.obstacleLossVisualizer intersectionLineWidth 1
par Static.visualizer.obstacleLossVisualizer displayFaceNormalVectors false
par Static.visualizer.obstacleLossVisualizer faceNormalLineColor "\"grey\""
par Static.visualizer.obstacleLossVisualizer faceNormalLineStyle "\"solid\""
par Static.visualizer.obstacleLossVisualizer faceNormalLineWidth 1
par Static.visualizer.obstacleLossVisualizer fadeOutMode "\"realTime\""
attr enum realTime,animationTime,simulationTime
par Static.visualizer.obstacleLossVisualizer fadeOutTime 1s
attr unit s
par Static.visualizer.obstacleLossVisualizer fadeOutAnimationSpeed 0
par Static.visualizer.obstacleLossVisualizer zIndex 0
par Static.visualizer.packetDropVisualizer typename "\"inet.visualizer.canvas.common.PacketDropCanvasVisualizer\""
par Static.visualizer.packetDropVisualizer visualizationTargetModule "\"^.^\""
par Static.visualizer.packetDropVisualizer visualizationSubjectModule "\"^.^\""
par Static.visualizer.packetDropVisualizer tags "\"\""
par Static.visualizer.packetDropVisualizer displayPacketDrops false
par Static.visualizer.packetDropVisualizer nodeFilter "\"*\""
attr mutable ""
par Static.visualizer.packetDropVisualizer interfaceFilter "\"*\""
attr mutable ""
par Static.visualizer.packetDropVisualizer packetFilter "(omnetpp::cValueHolder)holder: \"*\""
attr mutable ""
par Static.visualizer.packetDropVisualizer detailsFilter "\"*\""
attr mutable ""
par Static.visualizer.packetDropVisualizer icon "\"msg/packet_s\""
par Static.visualizer.packetDropVisualizer iconTintAmount 1
par Static.visualizer.packetDropVisualizer iconTintColor "\"dark\""
par Static.visualizer.packetDropVisualizer labelFormat "\"%n\""
attr mutable ""
par Static.visualizer.packetDropVisualizer labelFont "\"<default>\""
par Static.visualizer.packetDropVisualizer labelColor "\"black\""
par Static.visualizer.packetDropVisualizer fadeOutMode "\"realTime\""
attr enum realTime,animationTime,simulationTime
par Static.visualizer.packetDropVisualizer fadeOutTime 1s
attr unit s
par Static.visualizer.packetDropVisualizer fadeOutAnimationSpeed 0
par Static.visualizer.packetDropVisualizer zIndex 10
par Static.visualizer.packetDropVisualizer dx 32
par Static.visualizer.packetDropVisualizer dy 64
par Static.visualizer.packetFlowVisualizer typename "\"inet.visualizer.canvas.flow.PacketFlowCanvasVisualizer\""
par Static.visualizer.packetFlowVisualizer visualizationTargetModule "\"^.^\""
par Static.visualizer.packetFlowVisualizer visualizationSubjectModule "\"^.^\""
par Static.visualizer.packetFlowVisualizer tags "\"\""
par Static.visualizer.packetFlowVisualizer displayRoutes false
par Static.visualizer.packetFlowVisualizer startPathSignal "\"packetFlowStarted\""
par Static.visualizer.packetFlowVisualizer extendPathSignal "\"packetReceivedFromLower\""
par Static.visualizer.packetFlowVisualizer endPathSignal "\"packetFlowEnded\""
par Static.visualizer.packetFlowVisualizer nodeFilter "\"*\""
attr mutable ""
par Static.visualizer.packetFlowVisualizer packetFilter "(omnetpp::cValueHolder)holder: \"*\""
attr mutable ""
par Static.visualizer.packetFlowVisualizer lineColor "\"dark\""
attr enum light,dark
par Static.visualizer.packetFlowVisualizer lineStyle "\"dashed\""
par Static.visualizer.packetFlowVisualizer lineWidth 3
par Static.visualizer.packetFlowVisualizer lineSmooth false
par Static.visualizer.packetFlowVisualizer lineShift 16
par Static.visualizer.packetFlowVisualizer lineShiftMode "\"normal\""
par Static.visualizer.packetFlowVisualizer lineContactSpacing 3
par Static.visualizer.packetFlowVisualizer lineContactMode "\"rectangular\""
attr enum circular,rectangular
par Static.visualizer.packetFlowVisualizer labelFormat "\"%L %p pk (%l)\""
par Static.visualizer.packetFlowVisualizer labelFont "\"<default>, 8px\""
par Static.visualizer.packetFlowVisualizer labelColor "\"\""
par Static.visualizer.packetFlowVisualizer fadeOutMode "\"realTime\""
attr enum realTime,animationTime,simulationTime
par Static.visualizer.packetFlowVisualizer fadeOutTime 0s
attr unit s
par Static.visualizer.packetFlowVisualizer fadeOutAnimationSpeed 0
par Static.visualizer.packetFlowVisualizer zIndex 4
par Static.visualizer.queueVisualizer typename "\"inet.visualizer.canvas.common.QueueCanvasVisualizer\""
par Static.visualizer.queueVisualizer visualizationTargetModule "\"^.^\""
par Static.visualizer.queueVisualizer visualizationSubjectModule "\"^.^\""
par Static.visualizer.queueVisualizer tags "\"\""
par Static.visualizer.queueVisualizer networkNodeVisualizerModule "\"^.networkNodeVisualizer\""
par Static.visualizer.queueVisualizer displayQueues false
par Static.visualizer.queueVisualizer queueFilter "\"**\""
par Static.visualizer.queueVisualizer color "\"blue\""
par Static.visualizer.queueVisualizer width 8
par Static.visualizer.queueVisualizer height 24
par Static.visualizer.queueVisualizer spacing 2
par Static.visualizer.queueVisualizer placementHint "\"right\""
par Static.visualizer.queueVisualizer placementPriority 0
par Static.visualizer.queueVisualizer zIndex 10
par Static.visualizer.gateScheduleVisualizer typename "\"inet.visualizer.canvas.common.GateScheduleCanvasVisualizer\""
par Static.visualizer.gateScheduleVisualizer visualizationTargetModule "\"^.^\""
par Static.visualizer.gateScheduleVisualizer visualizationSubjectModule "\"^.^\""
par Static.visualizer.gateScheduleVisualizer tags "\"\""
par Static.visualizer.gateScheduleVisualizer networkNodeVisualizerModule "\"^.networkNodeVisualizer\""
par Static.visualizer.gateScheduleVisualizer displayGateSchedules false
par Static.visualizer.gateScheduleVisualizer labelFormat "\"%i %D\""
par Static.visualizer.gateScheduleVisualizer gateFilter "\"**\""
par Static.visualizer.gateScheduleVisualizer width 100
par Static.visualizer.gateScheduleVisualizer height 8
par Static.visualizer.gateScheduleVisualizer spacing 2
par Static.visualizer.gateScheduleVisualizer placementHint "\"right\""
par Static.visualizer.gateScheduleVisualizer placementPriority 0
par Static.visualizer.gateScheduleVisualizer displayDuration 0s
attr mutable ""
attr unit s
par Static.visualizer.gateScheduleVisualizer currentTimePosition 50
par Static.visualizer.gateScheduleVisualizer zIndex 10
par Static.visualizer.radioVisualizer typename "\"inet.visualizer.canvas.physicallayer.RadioCanvasVisualizer\""
par Static.visualizer.radioVisualizer visualizationTargetModule "\"^.^\""
par Static.visualizer.radioVisualizer visualizationSubjectModule "\"^.^\""
par Static.visualizer.radioVisualizer tags "\"\""
par Static.visualizer.radioVisualizer networkNodeVisualizerModule "\"^.networkNodeVisualizer\""
par Static.visualizer.radioVisualizer displayRadios false
par Static.visualizer.radioVisualizer displayRadioMode true
par Static.visualizer.radioVisualizer displayReceptionState true
par Static.visualizer.radioVisualizer displayTransmissionState true
par Static.visualizer.radioVisualizer displayAntennaLobes false
par Static.visualizer.radioVisualizer radioFilter "\"**\""
attr mutable ""
par Static.visualizer.radioVisualizer radioModeImages "\"block/process_vs block/timer_vs block/wrx_vs block/wtx_vs block/wrxtx_vs block/cogwheel_vs\""
par Static.visualizer.radioVisualizer receptionStateImages "\"- - misc/receiving misc/receiving\""
par Static.visualizer.radioVisualizer transmissionStateImages "\"- - misc/transmitting\""
par Static.visualizer.radioVisualizer width 16
par Static.visualizer.radioVisualizer height 16
par Static.visualizer.radioVisualizer placementHint "\"bottomRight\""
par Static.visualizer.radioVisualizer placementPriority 0
par Static.visualizer.radioVisualizer antennaLobeNormalize false
par Static.visualizer.radioVisualizer antennaLobeRelativeLabels false
par Static.visualizer.radioVisualizer antennaLobePlaneGlobal true
par Static.visualizer.radioVisualizer antennaLobePlane "\"view\""
attr enum view,xy,xz,yz
par Static.visualizer.radioVisualizer antennaLobeMode "\"logarithmic\""
attr enum logarithmic,linear
par Static.visualizer.radioVisualizer antennaLobeLogarithmicBase 10
par Static.visualizer.radioVisualizer antennaLobeLogarithmicScale 100
par Static.visualizer.radioVisualizer antennaLobeRadius 100
par Static.visualizer.radioVisualizer antennaLobeStep 10deg
attr unit deg
par Static.visualizer.radioVisualizer antennaLobeOpacity 0.25
par Static.visualizer.radioVisualizer antennaLobeLineSmooth true
par Static.visualizer.radioVisualizer antennaLobeLineColor "\"black\""
par Static.visualizer.radioVisualizer antennaLobeLineStyle "\"solid\""
par Static.visualizer.radioVisualizer antennaLobeLineWidth 1
par Static.visualizer.radioVisualizer antennaLobeFillColor "\"white\""
par Static.visualizer.radioVisualizer zIndex 10
par Static.visualizer.physicalLinkVisualizer typename "\"inet.visualizer.canvas.physicallayer.PhysicalLinkCanvasVisualizer\""
par Static.visualizer.physicalLinkVisualizer visualizationTargetModule "\"^.^\""
par Static.visualizer.physicalLinkVisualizer visualizationSubjectModule "\"^.^\""
par Static.visualizer.physicalLinkVisualizer tags "\"\""
par Static.visualizer.physicalLinkVisualizer displayLinks true
par Static.visualizer.physicalLinkVisualizer activityLevel "\"service\""
attr enum service,peer,protocol
par Static.visualizer.physicalLinkVisualizer nodeFilter "\"*\""
attr mutable ""
par Static.visualizer.physicalLinkVisualizer interfaceFilter "\"*\""
attr mutable ""
par Static.visualizer.physicalLinkVisualizer packetFilter "(omnetpp::cValueHolder)holder: \"UDPData*\""
attr mutable ""
par Static.visualizer.physicalLinkVisualizer lineColor "\"olive\""
par Static.visualizer.physicalLinkVisualizer lineStyle "\"dotted\""
par Static.visualizer.physicalLinkVisualizer lineWidth 3
par Static.visualizer.physicalLinkVisualizer lineShift 0
par Static.visualizer.physicalLinkVisualizer lineShiftMode "\"normal\""
par Static.visualizer.physicalLinkVisualizer lineContactSpacing 3
par Static.visualizer.physicalLinkVisualizer lineContactMode "\"rectangular\""
attr enum circular,rectangular
par Static.visualizer.physicalLinkVisualizer labelFormat "\"%n\""
par Static.visualizer.physicalLinkVisualizer labelFont "\"<default>, 8px\""
par Static.visualizer.physicalLinkVisualizer labelColor "\"olive\""
par Static.visualizer.physicalLinkVisualizer fadeOutMode "\"realTime\""
attr enum realTime,animationTime,simulationTime
par Static.visualizer.physicalLinkVisualizer fadeOutTime 1s
attr unit s
par Static.visualizer.physicalLinkVisualizer fadeOutAnimationSpeed 0
par Static.visualizer.physicalLinkVisualizer holdAnimationTime 0s
attr unit s
par Static.visualizer.physicalLinkVisualizer zIndex 1
par Static.visualizer.interfaceTableVisualizer typename "\"inet.visualizer.canvas.linklayer.InterfaceTableCanvasVisualizer\""
par Static.visualizer.interfaceTableVisualizer visualizationTargetModule "\"^.^\""
par Static.visualizer.interfaceTableVisualizer visualizationSubjectModule "\"^.^\""
par Static.visualizer.interfaceTableVisualizer tags "\"\""
par Static.visualizer.interfaceTableVisualizer networkNodeVisualizerModule "\"^.networkNodeVisualizer\""
par Static.visualizer.interfaceTableVisualizer displayInterfaceTables false
par Static.visualizer.interfaceTableVisualizer displayWiredInterfacesAtConnections true
par Static.visualizer.interfaceTableVisualizer displayBackground false
par Static.visualizer.interfaceTableVisualizer nodeFilter "\"*\""
attr mutable ""
par Static.visualizer.interfaceTableVisualizer interfaceFilter "\"not(lo*)\""
attr mutable ""
par Static.visualizer.interfaceTableVisualizer format "\"%N %\\\\%a%/%l\""
attr mutable ""
par Static.visualizer.interfaceTableVisualizer placementHint "\"top\""
par Static.visualizer.interfaceTableVisualizer placementPriority 0
par Static.visualizer.interfaceTableVisualizer font "\"<default>\""
par Static.visualizer.interfaceTableVisualizer textColor "\"#005030\""
par Static.visualizer.interfaceTableVisualizer backgroundColor "\"white\""
par Static.visualizer.interfaceTableVisualizer opacity 1
par Static.visualizer.interfaceTableVisualizer zIndex 10
par Static.visualizer.dataLinkVisualizer typename "\"inet.visualizer.canvas.linklayer.DataLinkCanvasVisualizer\""
par Static.visualizer.dataLinkVisualizer visualizationTargetModule "\"^.^\""
par Static.visualizer.dataLinkVisualizer visualizationSubjectModule "\"^.^\""
par Static.visualizer.dataLinkVisualizer tags "\"\""
par Static.visualizer.dataLinkVisualizer displayLinks true
par Static.visualizer.dataLinkVisualizer activityLevel "\"service\""
attr enum service,peer,protocol
par Static.visualizer.dataLinkVisualizer nodeFilter "\"*\""
attr mutable ""
par Static.visualizer.dataLinkVisualizer interfaceFilter "\"*\""
attr mutable ""
par Static.visualizer.dataLinkVisualizer packetFilter "(omnetpp::cValueHolder)holder: \"*\""
attr mutable ""
par Static.visualizer.dataLinkVisualizer lineColor "\"darkcyan\""
par Static.visualizer.dataLinkVisualizer lineStyle "\"solid\""
par Static.visualizer.dataLinkVisualizer lineWidth 3
par Static.visualizer.dataLinkVisualizer lineShift 0
par Static.visualizer.dataLinkVisualizer lineShiftMode "\"normal\""
par Static.visualizer.dataLinkVisualizer lineContactSpacing 3
par Static.visualizer.dataLinkVisualizer lineContactMode "\"rectangular\""
attr enum circular,rectangular
par Static.visualizer.dataLinkVisualizer labelFormat "\"%n\""
par Static.visualizer.dataLinkVisualizer labelFont "\"<default>, 8px\""
par Static.visualizer.dataLinkVisualizer labelColor "\"darkcyan\""
par Static.visualizer.dataLinkVisualizer fadeOutMode "\"realTime\""
attr enum realTime,animationTime,simulationTime
par Static.visualizer.dataLinkVisualizer fadeOutTime 1s
attr unit s
par Static.visualizer.dataLinkVisualizer fadeOutAnimationSpeed 0
par Static.visualizer.dataLinkVisualizer holdAnimationTime 0s
attr unit s
par Static.visualizer.dataLinkVisualizer zIndex 2
par Static.visualizer.linkBreakVisualizer typename "\"inet.visualizer.canvas.linklayer.LinkBreakCanvasVisualizer\""
par Static.visualizer.linkBreakVisualizer visualizationTargetModule "\"^.^\""
par Static.visualizer.linkBreakVisualizer visualizationSubjectModule "\"^.^\""
par Static.visualizer.linkBreakVisualizer tags "\"\""
par Static.visualizer.linkBreakVisualizer displayLinkBreaks false
par Static.visualizer.linkBreakVisualizer nodeFilter "\"*\""
attr mutable ""
par Static.visualizer.linkBreakVisualizer interfaceFilter "\"*\""
attr mutable ""
par Static.visualizer.linkBreakVisualizer packetFilter "(omnetpp::cValueHolder)holder: \"*\""
attr mutable ""
par Static.visualizer.linkBreakVisualizer icon "\"status/stop\""
par Static.visualizer.linkBreakVisualizer iconTintAmount 0
par Static.visualizer.linkBreakVisualizer iconTintColor "\"\""
par Static.visualizer.linkBreakVisualizer fadeOutMode "\"realTime\""
attr enum realTime,animationTime,simulationTime
par Static.visualizer.linkBreakVisualizer fadeOutTime 1s
attr unit s
par Static.visualizer.linkBreakVisualizer fadeOutAnimationSpeed 0
par Static.visualizer.linkBreakVisualizer zIndex 2
par Static.visualizer.ieee80211Visualizer typename "\"inet.visualizer.canvas.linklayer.Ieee80211CanvasVisualizer\""
par Static.visualizer.ieee80211Visualizer visualizationTargetModule "\"^.^\""
par Static.visualizer.ieee80211Visualizer visualizationSubjectModule "\"^.^\""
par Static.visualizer.ieee80211Visualizer tags "\"\""
par Static.visualizer.ieee80211Visualizer networkNodeVisualizerModule "\"^.networkNodeVisualizer\""
par Static.visualizer.ieee80211Visualizer displayAssociations false
par Static.visualizer.ieee80211Visualizer nodeFilter "\"*\""
attr mutable ""
par Static.visualizer.ieee80211Visualizer interfaceFilter "\"*\""
attr mutable ""
par Static.visualizer.ieee80211Visualizer minPower -85dBm
attr unit dBm
par Static.visualizer.ieee80211Visualizer maxPower -50dBm
attr unit dBm
par Static.visualizer.ieee80211Visualizer icons "\"misc/signal_power_0 misc/signal_power_1 misc/signal_power_2 misc/signal_power_3\""
par Static.visualizer.ieee80211Visualizer iconColor "\"dark\""
attr enum light,dark
par Static.visualizer.ieee80211Visualizer labelFont "\"<default>\""
par Static.visualizer.ieee80211Visualizer labelColor "\"black\""
par Static.visualizer.ieee80211Visualizer placementHint "\"top\""
par Static.visualizer.ieee80211Visualizer placementPriority 0
par Static.visualizer.ieee80211Visualizer zIndex 2
par Static.visualizer.networkRouteVisualizer typename "\"inet.visualizer.canvas.networklayer.NetworkRouteCanvasVisualizer\""
par Static.visualizer.networkRouteVisualizer visualizationTargetModule "\"^.^\""
par Static.visualizer.networkRouteVisualizer visualizationSubjectModule "\"^.^\""
par Static.visualizer.networkRouteVisualizer tags "\"\""
par Static.visualizer.networkRouteVisualizer displayRoutes true
par Static.visualizer.networkRouteVisualizer startPathSignal "\"packetReceivedFromUpper\""
par Static.visualizer.networkRouteVisualizer extendPathSignal "\"packetReceivedFromLower\""
par Static.visualizer.networkRouteVisualizer endPathSignal "\"packetSentToUpper\""
par Static.visualizer.networkRouteVisualizer nodeFilter "\"*\""
attr mutable ""
par Static.visualizer.networkRouteVisualizer packetFilter "(omnetpp::cValueHolder)holder: \"UDPData*\""
attr mutable ""
par Static.visualizer.networkRouteVisualizer lineColor "\"dark\""
attr enum light,dark
par Static.visualizer.networkRouteVisualizer lineStyle "\"solid\""
par Static.visualizer.networkRouteVisualizer lineWidth 3
par Static.visualizer.networkRouteVisualizer lineSmooth false
par Static.visualizer.networkRouteVisualizer lineShift 0
par Static.visualizer.networkRouteVisualizer lineShiftMode "\"normal\""
par Static.visualizer.networkRouteVisualizer lineContactSpacing 3
par Static.visualizer.networkRouteVisualizer lineContactMode "\"rectangular\""
attr enum circular,rectangular
par Static.visualizer.networkRouteVisualizer labelFormat "\"%n\""
par Static.visualizer.networkRouteVisualizer labelFont "\"<default>, 8px\""
par Static.visualizer.networkRouteVisualizer labelColor "\"\""
par Static.visualizer.networkRouteVisualizer fadeOutMode "\"realTime\""
attr enum realTime,animationTime,simulationTime
par Static.visualizer.networkRouteVisualizer fadeOutTime 1s
attr unit s
par Static.visualizer.networkRouteVisualizer fadeOutAnimationSpeed 0
par Static.visualizer.networkRouteVisualizer zIndex 3
par Static.visualizer.routingTableVisualizer typename "\"inet.visualizer.canvas.networklayer.RoutingTableCanvasVisualizer\""
par Static.visualizer.routingTableVisualizer visualizationTargetModule "\"^.^\""
par Static.visualizer.routingTableVisualizer visualizationSubjectModule "\"^.^\""
par Static.visualizer.routingTableVisualizer tags "\"\""
par Static.visualizer.routingTableVisualizer displayRoutingTables false
par Static.visualizer.routingTableVisualizer displayRoutesIndividually true
par Static.visualizer.routingTableVisualizer displayLabels true
par Static.visualizer.routingTableVisualizer destinationFilter "\"*\""
attr mutable ""
par Static.visualizer.routingTableVisualizer nodeFilter "\"*\""
attr mutable ""
par Static.visualizer.routingTableVisualizer lineColor "\"black\""
par Static.visualizer.routingTableVisualizer lineStyle "\"solid\""
par Static.visualizer.routingTableVisualizer lineWidth 2
par Static.visualizer.routingTableVisualizer lineShift 16
par Static.visualizer.routingTableVisualizer lineShiftMode "\"normal\""
par Static.visualizer.routingTableVisualizer lineContactSpacing 3
par Static.visualizer.routingTableVisualizer lineContactMode "\"rectangular\""
attr enum circular,rectangular
par Static.visualizer.routingTableVisualizer labelFormat "\"%d/%m -> %g (%n)\""
attr mutable ""
par Static.visualizer.routingTableVisualizer labelFont "\"<default>, 8px\""
par Static.visualizer.routingTableVisualizer labelColor "\"black\""
par Static.visualizer.routingTableVisualizer zIndex 0
par Static.visualizer.transportRouteVisualizer typename "\"inet.visualizer.canvas.transportlayer.TransportRouteCanvasVisualizer\""
par Static.visualizer.transportRouteVisualizer visualizationTargetModule "\"^.^\""
par Static.visualizer.transportRouteVisualizer visualizationSubjectModule "\"^.^\""
par Static.visualizer.transportRouteVisualizer tags "\"\""
par Static.visualizer.transportRouteVisualizer displayRoutes false
par Static.visualizer.transportRouteVisualizer startPathSignal "\"packetReceivedFromUpper\""
par Static.visualizer.transportRouteVisualizer extendPathSignal "\"packetReceivedFromLower\""
par Static.visualizer.transportRouteVisualizer endPathSignal "\"packetSentToUpper\""
par Static.visualizer.transportRouteVisualizer nodeFilter "\"*\""
attr mutable ""
par Static.visualizer.transportRouteVisualizer packetFilter "(omnetpp::cValueHolder)holder: \"*\""
attr mutable ""
par Static.visualizer.transportRouteVisualizer lineColor "\"dark\""
attr enum light,dark
par Static.visualizer.transportRouteVisualizer lineStyle "\"solid\""
par Static.visualizer.transportRouteVisualizer lineWidth 3
par Static.visualizer.transportRouteVisualizer lineSmooth false
par Static.visualizer.transportRouteVisualizer lineShift 16
par Static.visualizer.transportRouteVisualizer lineShiftMode "\"normal\""
par Static.visualizer.transportRouteVisualizer lineContactSpacing 3
par Static.visualizer.transportRouteVisualizer lineContactMode "\"rectangular\""
attr enum circular,rectangular
par Static.visualizer.transportRouteVisualizer labelFormat "\"%n\""
par Static.visualizer.transportRouteVisualizer labelFont "\"<default>, 8px\""
par Static.visualizer.transportRouteVisualizer labelColor "\"\""
par Static.visualizer.transportRouteVisualizer fadeOutMode "\"realTime\""
attr enum realTime,animationTime,simulationTime
par Static.visualizer.transportRouteVisualizer fadeOutTime 1s
attr unit s
par Static.visualizer.transportRouteVisualizer fadeOutAnimationSpeed 0
par Static.visualizer.transportRouteVisualizer zIndex 4
par Static.visualizer.transportConnectionVisualizer typename "\"inet.visualizer.canvas.transportlayer.TransportConnectionCanvasVisualizer\""
par Static.visualizer.transportConnectionVisualizer visualizationTargetModule "\"^.^\""
par Static.visualizer.transportConnectionVisualizer visualizationSubjectModule "\"^.^\""
par Static.visualizer.transportConnectionVisualizer tags "\"\""
par Static.visualizer.transportConnectionVisualizer networkNodeVisualizerModule "\"^.networkNodeVisualizer\""
par Static.visualizer.transportConnectionVisualizer displayTransportConnections false
par Static.visualizer.transportConnectionVisualizer sourceNodeFilter "\"*\""
attr mutable ""
par Static.visualizer.transportConnectionVisualizer sourcePortFilter "\"*\""
attr mutable ""
par Static.visualizer.transportConnectionVisualizer destinationNodeFilter "\"*\""
attr mutable ""
par Static.visualizer.transportConnectionVisualizer destinationPortFilter "\"*\""
attr mutable ""
par Static.visualizer.transportConnectionVisualizer icon "\"misc/marker_s\""
par Static.visualizer.transportConnectionVisualizer iconColor "\"dark\""
attr enum light,dark
par Static.visualizer.transportConnectionVisualizer labelFont "\"<default>\""
par Static.visualizer.transportConnectionVisualizer labelColor "\"black\""
par Static.visualizer.transportConnectionVisualizer placementHint "\"top\""
par Static.visualizer.transportConnectionVisualizer placementPriority 0
par Static.visualizer.transportConnectionVisualizer zIndex 4
par Static.visualizer.failureProtectionConfigurationVisualizer typename "\"inet.visualizer.canvas.configurator.FailureProtectionConfigurationCanvasVisualizer\""
par Static.visualizer.failureProtectionConfigurationVisualizer visualizationTargetModule "\"^.^\""
par Static.visualizer.failureProtectionConfigurationVisualizer visualizationSubjectModule "\"^.^\""
par Static.visualizer.failureProtectionConfigurationVisualizer tags "\"\""
par Static.visualizer.failureProtectionConfigurationVisualizer displayTrees false
par Static.visualizer.failureProtectionConfigurationVisualizer lineColor "\"dark\""
attr enum light,dark
par Static.visualizer.failureProtectionConfigurationVisualizer lineStyle "\"solid\""
par Static.visualizer.failureProtectionConfigurationVisualizer lineWidth 3
par Static.visualizer.failureProtectionConfigurationVisualizer lineSmooth false
par Static.visualizer.failureProtectionConfigurationVisualizer lineShift 16
par Static.visualizer.failureProtectionConfigurationVisualizer lineShiftMode "\"normal\""
par Static.visualizer.failureProtectionConfigurationVisualizer lineContactSpacing 3
par Static.visualizer.failureProtectionConfigurationVisualizer lineContactMode "\"rectangular\""
attr enum circular,rectangular
par Static.visualizer.failureProtectionConfigurationVisualizer failureProtectionConfiguratorModule "\"failureProtectionConfigurator\""
par Static.visualizer.failureProtectionConfigurationVisualizer streamFilter "\"*\""
par Static.visualizer.failureProtectionConfigurationVisualizer zIndex 3
par Static.visualizer.streamRedundancyConfigurationVisualizer typename "\"inet.visualizer.canvas.configurator.StreamRedundancyConfigurationCanvasVisualizer\""
par Static.visualizer.streamRedundancyConfigurationVisualizer visualizationTargetModule "\"^.^\""
par Static.visualizer.streamRedundancyConfigurationVisualizer visualizationSubjectModule "\"^.^\""
par Static.visualizer.streamRedundancyConfigurationVisualizer tags "\"\""
par Static.visualizer.streamRedundancyConfigurationVisualizer displayTrees false
par Static.visualizer.streamRedundancyConfigurationVisualizer lineColor "\"dark\""
attr enum light,dark
par Static.visualizer.streamRedundancyConfigurationVisualizer lineStyle "\"solid\""
par Static.visualizer.streamRedundancyConfigurationVisualizer lineWidth 3
par Static.visualizer.streamRedundancyConfigurationVisualizer lineSmooth false
par Static.visualizer.streamRedundancyConfigurationVisualizer lineShift 16
par Static.visualizer.streamRedundancyConfigurationVisualizer lineShiftMode "\"normal\""
par Static.visualizer.streamRedundancyConfigurationVisualizer lineContactSpacing 3
par Static.visualizer.streamRedundancyConfigurationVisualizer lineContactMode "\"rectangular\""
attr enum circular,rectangular
par Static.visualizer.streamRedundancyConfigurationVisualizer streamRedundancyConfiguratorModule "\"streamRedundancyConfigurator\""
par Static.visualizer.streamRedundancyConfigurationVisualizer streamFilter "\"*\""
par Static.visualizer.streamRedundancyConfigurationVisualizer zIndex 3
par Static.visualizer typename "\"inet.visualizer.canvas.integrated.IntegratedCanvasVisualizer\""
par Static.configurator typename "\"inet.networklayer.configurator.ipv4.Ipv4NetworkConfigurator\""
par Static.configurator minLinkWeight 0.001
par Static.configurator configureIsolatedNetworksSeparatly false
par Static.configurator config "<config>...</config> at content:1"
par Static.configurator assignAddresses true
par Static.configurator assignUniqueAddresses true
par Static.configurator assignDisjunctSubnetAddresses true
par Static.configurator addStaticRoutes true
par Static.configurator addDefaultRoutes true
par Static.configurator addSubnetRoutes true
par Static.configurator addDirectRoutes true
par Static.configurator optimizeRoutes false
par Static.configurator dumpTopology false
par Static.configurator dumpLinks false
par Static.configurator dumpAddresses false
par Static.configurator dumpRoutes false
par Static.configurator dumpConfig "\"\""
par Static.radioMedium.propagation typename "\"inet.physicallayer.wireless.common.propagation.ConstantSpeedPropagation\""
par Static.radioMedium.propagation propagationSpeed 2.99792e+08mps
attr unit mps
par Static.radioMedium.propagation ignoreMovementDuringTransmission true
par Static.radioMedium.propagation ignoreMovementDuringPropagation true
par Static.radioMedium.propagation ignoreMovementDuringReception true
scalar Static.radioMedium.propagation "Arrival computation count" 6360
par Static.radioMedium.analogModel typename "\"inet.physicallayer.wireless.unitdisk.UnitDiskAnalogModel\""
par Static.radioMedium.pathLoss typename "\"inet.physicallayer.wireless.common.pathloss.FreeSpacePathLoss\""
par Static.radioMedium.pathLoss alpha 2
par Static.radioMedium.pathLoss systemLoss 0dB
attr unit dB
par Static.radioMedium.mediumLimitCache typename "\"inet.physicallayer.wireless.common.medium.MediumLimitCache\""
par Static.radioMedium.mediumLimitCache centerFrequency "nan Hz"
attr unit Hz
par Static.radioMedium.mediumLimitCache maxSpeed "nan mps"
attr unit mps
par Static.radioMedium.mediumLimitCache maxTransmissionPower "nan W"
attr unit W
par Static.radioMedium.mediumLimitCache minInterferencePower "nan dBm"
attr unit dBm
par Static.radioMedium.mediumLimitCache minReceptionPower "nan dBm"
attr unit dBm
par Static.radioMedium.mediumLimitCache maxAntennaGain 0dB
attr unit dB
par Static.radioMedium.mediumLimitCache minInterferenceTime 1e-12s
attr unit s
par Static.radioMedium.mediumLimitCache maxTransmissionDuration 0.01s
attr unit s
par Static.radioMedium.mediumLimitCache maxCommunicationRange "nan m"
attr unit m
par Static.radioMedium.mediumLimitCache maxInterferenceRange "nan m"
attr unit m
par Static.radioMedium.communicationCache typename "\"inet.physicallayer.wireless.common.communicationcache.VectorCommunicationCache\""
par Static.radioMedium typename "\"inet.physicallayer.wireless.unitdisk.UnitDiskRadioMedium\""
par Static.radioMedium physicalEnvironmentModule "\"physicalEnvironment\""
par Static.radioMedium signalAnalogRepresentation "\"unitDisk\""
attr enum unitDisk,scalar,dimensional
par Static.radioMedium rangeFilter "\"\""
par Static.radioMedium radioModeFilter false
par Static.radioMedium listeningFilter false
par Static.radioMedium macAddressFilter false
par Static.radioMedium recordTransmissionLog false
par Static.radioMedium recordReceptionLog false
scalar Static.radioMedium "transmission count" 240
scalar Static.radioMedium "signal send count" 5760
scalar Static.radioMedium "reception computation count" 5760
scalar Static.radioMedium "interference computation count" 14437
scalar Static.radioMedium "reception decision computation count" 2140
scalar Static.radioMedium "listening decision computation count" 6537
scalar Static.radioMedium "reception cache hit" 85.803716665845
attr unit %
scalar Static.radioMedium "interference cache hit" 66.666666666667
attr unit %
scalar Static.radioMedium "noise cache hit" 0
attr unit %
scalar Static.radioMedium "snir cache hit" 50
attr unit %
scalar Static.radioMedium "reception decision cache hit" 50
attr unit %
scalar Static.radioMedium "reception result cache hit" 0
attr unit %
par Static.host[0].radioIn[0].channel typename "\"ned.IdealChannel\""
par Static.host[0].mobility typename "\"inet.mobility.static.StationaryMobility\""
par Static.host[0].mobility subjectModule "\"^\""
par Static.host[0].mobility coordinateSystemModule "\"\""
par Static.host[0].mobility displayStringTextFormat "\"p: %p\\nv: %v\""
attr mutable ""
par Static.host[0].mobility updateDisplayString true
par Static.host[0].mobility constraintAreaMinX 0m
attr unit m
par Static.host[0].mobility constraintAreaMinY 0m
attr unit m
par Static.host[0].mobility constraintAreaMinZ 0m
attr unit m
par Static.host[0].mobility constraintAreaMaxX 1000m
attr unit m
par Static.host[0].mobility constraintAreaMaxY 1000m
attr unit m
par Static.host[0].mobility constraintAreaMaxZ 0m
attr unit m
par Static.host[0].mobility initialX 548.814m
attr unit m
par Static.host[0].mobility initialY 592.845m
attr unit m
par Static.host[0].mobility initialZ 0m
attr unit m
par Static.host[0].mobility initialLatitude "nan deg"
attr unit deg
par Static.host[0].mobility initialLongitude "nan deg"
attr unit deg
par Static.host[0].mobility initialAltitude 0m
attr unit m
par Static.host[0].mobility initialHeading 0deg
attr unit deg
par Static.host[0].mobility initialElevation 0deg
attr unit deg
par Static.host[0].mobility initialBank 0deg
attr unit deg
par Static.host[0].mobility initFromDisplayString false
par Static.host[0].mobility updateFromDisplayString true
par Static.host[0].interfaceTable typename "\"inet.networklayer.common.InterfaceTable\""
par Static.host[0].interfaceTable displayAddresses false
par Static.host[0].cb typename "\"inet.common.MessageDispatcher\""
par Static.host[0].cb displayStringTextFormat "\"processed %p pk (%l)\""
par Static.host[0].cb forwardServiceRegistration true
par Static.host[0].cb forwardProtocolRegistration true
par Static.host[0].bl typename "\"inet.common.MessageDispatcher\""
par Static.host[0].bl displayStringTextFormat "\"processed %p pk (%l)\""
par Static.host[0].bl forwardServiceRegistration true
par Static.host[0].bl forwardProtocolRegistration true
par Static.host[0].li typename "\"inet.common.MessageDispatcher\""
par Static.host[0].li displayStringTextFormat "\"processed %p pk (%l)\""
par Static.host[0].li forwardServiceRegistration true
par Static.host[0].li forwardProtocolRegistration true
par Static.host[0].lo[0].upperLayerIn.channel typename "\"ned.IdealChannel\""
par Static.host[0].lo[0].lo.upperLayerOut.channel typename "\"ned.IdealChannel\""
par Static.host[0].lo[0].lo typename "\"inet.linklayer.loopback.Loopback\""
par Static.host[0].lo[0].lo interfaceTableModule "\"Static.host[0].interfaceTable\""
par Static.host[0].lo[0].lo mtu 4470B
attr unit B
scalar Static.host[0].lo[0].lo rcvdPkFromHl:count 0
attr interpolationmode none
attr recordingmode count
attr source packetReceivedFromUpper
attr title "packets received from higher layer, count"
scalar Static.host[0].lo[0].lo rcvdPkFromHl:sum(packetBytes) 0
attr interpolationmode none
attr recordingmode sum(packetBytes)
attr source packetReceivedFromUpper
attr title "packets received from higher layer, sum(packetBytes)"
scalar Static.host[0].lo[0].lo passedUpPk:count 0
attr interpolationmode none
attr recordingmode count
attr source packetSentToUpper
attr title "packets passed to higher layer, count"
scalar Static.host[0].lo[0].lo passedUpPk:sum(packetBytes) 0
attr interpolationmode none
attr recordingmode sum(packetBytes)
attr source packetSentToUpper
attr title "packets passed to higher layer, sum(packetBytes)"
par Static.host[0].lo[0] typename "\"inet.linklayer.loopback.LoopbackInterface\""
par Static.host[0].lo[0] displayStringTextFormat "\"%a (%i)\\n%m\""
par Static.host[0].lo[0] recordPcap false
par Static.host[0].lo[0] numPcapRecorders 0
par Static.host[0].lo[0] interfaceTableModule "\"Static.host[0].interfaceTable\""
scalar Static.host[0].lo[0] packetDropInterfaceDown:count 0
attr interpolationmode none
attr recordingmode count
attr source packetDropReasonIsInterfaceDown(packetDropped)
attr title "packet drops: interface down, count"
scalar Static.host[0].lo[0] packetDropInterfaceDown:sum(packetBytes) 0
attr interpolationmode none
attr recordingmode sum(packetBytes)
attr source packetDropReasonIsInterfaceDown(packetDropped)
attr title "packet drops: interface down, sum(packetBytes)"
scalar Static.host[0].lo[0] packetDropNoCarrier:count 0
attr interpolationmode none
attr recordingmode count
attr source packetDropReasonIsNoCarrier(packetDropped)
attr title "packet drops: no carrier, count"
scalar Static.host[0].lo[0] packetDropNoCarrier:sum(packetBytes) 0
attr interpolationmode none
attr recordingmode sum(packetBytes)
attr source packetDropReasonIsNoCarrier(packetDropped)
attr title "packet drops: no carrier, sum(packetBytes)"
par Static.host[0].wlan[0].upperLayerIn.channel typename "\"ned.IdealChannel\""
par Static.host[0].wlan[0].radioIn.channel typename "\"ned.IdealChannel\""
par Static.host[0].wlan[0].mac.upperLayerOut.channel typename "\"ned.IdealChannel\""
par Static.host[0].wlan[0].queue typename "\"inet.queueing.queue.DropTailQueue\""
par Static.host[0].wlan[0].queue displayStringTextFormat "\"contains %p pk (%l) pushed %u\\npulled %o removed %r dropped %d\""
par Static.host[0].wlan[0].queue packetCapacity 100
par Static.host[0].wlan[0].queue dataCapacity -1b
attr unit b
par Static.host[0].wlan[0].queue dropperClass "\"inet::queueing::PacketAtCollectionEndDropper\""
par Static.host[0].wlan[0].queue comparatorClass "\"\""
par Static.host[0].wlan[0].queue bufferModule "\"\""
scalar Static.host[0].wlan[0].queue queueLength:last 25
attr autoWarmupFilter false
attr interpolationmode sample-hold
attr recordingmode last
attr source "warmup(atomic(constant0(packetPushEnded) + count(packetPushStarted) - count(packetPulled) - count(packetRemoved) - count(packetDropped)))"
attr title "queue length, last"
attr unit pk
scalar Static.host[0].wlan[0].queue queueLength:max 25
attr autoWarmupFilter false
attr interpolationmode sample-hold
attr recordingmode max
attr source "warmup(atomic(constant0(packetPushEnded) + count(packetPushStarted) - count(packetPulled) - count(packetRemoved) - count(packetDropped)))"
attr title "queue length, max"
attr unit pk
scalar Static.host[0].wlan[0].queue queueLength:timeavg 11.130972783239
attr autoWarmupFilter false
attr interpolationmode sample-hold
attr recordingmode timeavg
attr source "warmup(atomic(constant0(packetPushEnded) + count(packetPushStarted) - count(packetPulled) - count(packetRemoved) - count(packetDropped)))"
attr title "queue length, timeavg"
attr unit pk
scalar Static.host[0].wlan[0].queue queueBitLength:last 205600
attr autoWarmupFilter false
attr interpolationmode sample-hold
attr recordingmode last
attr source "warmup(atomic(constant0(packetPushEnded) + sum(packetLength(packetPushStarted)) - sum(packetLength(packetPulled)) - sum(packetLength(packetRemoved)) - sum(packetLength(packetDropped))))"
attr title "queue bit length, last"
attr unit b
scalar Static.host[0].wlan[0].queue queueBitLength:max 205600
attr autoWarmupFilter false
attr interpolationmode sample-hold
attr recordingmode max
attr source "warmup(atomic(constant0(packetPushEnded) + sum(packetLength(packetPushStarted)) - sum(packetLength(packetPulled)) - sum(packetLength(packetRemoved)) - sum(packetLength(packetDropped))))"
attr title "queue bit length, max"
attr unit b
scalar Static.host[0].wlan[0].queue queueBitLength:timeavg 91541.120169357
attr autoWarmupFilter false
attr interpolationmode sample-hold
attr recordingmode timeavg
attr source "warmup(atomic(constant0(packetPushEnded) + sum(packetLength(packetPushStarted)) - sum(packetLength(packetPulled)) - sum(packetLength(packetRemoved)) - sum(packetLength(packetDropped))))"
attr title "queue bit length, timeavg"
attr unit b
statistic Static.host[0].wlan[0].queue queueingTime:histogram
field count 3
field mean 0.091495721018333
field stddev 0.09311766195388
field min 0
field max 0.186154712615
field sum 0.274487163055
field sqrsum 0.042456198829508
attr interpolationmode none
attr recordingmode histogram
attr source queueingTime(packetPulled)
attr title "queueing times"
attr unit s
bin	-inf	0
bin	0	1
bin	0.005	0
bin	0.01	0
bin	0.015	0
bin	0.02	0
bin	0.025	0
bin	0.03	0
bin	0.035	0
bin	0.04	0
bin	0.045	0
bin	0.05	0
bin	0.055	0
bin	0.06	0
bin	0.065	0
bin	0.07	0
bin	0.075	0
bin	0.08	0
bin	0.085	1
bin	0.09	0
bin	0.095	0
bin	0.1	0
bin	0.105	0
bin	0.11	0
bin	0.115	0
bin	0.12	0
bin	0.125	0
bin	0.13	0
bin	0.135	0
bin	0.14	0
bin	0.145	0
bin	0.15	0
bin	0.155	0
bin	0.16	0
bin	0.165	0
bin	0.17	0
bin	0.175	0
bin	0.18	0
bin	0.185	1
bin	0.19	0
bin	0.195	0
bin	0.2	0
bin	0.205	0
bin	0.21	0
bin	0.215	0
bin	0.22	0
bin	0.225	0
bin	0.23	0
bin	0.235	0
scalar Static.host[0].wlan[0].queue outgoingPackets:count 3
attr recordingmode count
attr source packetPulled
attr title "outgoing packets, count"
attr unit pk
scalar Static.host[0].wlan[0].queue outgoingPacketLengths:sum 24672
attr interpolationmode none
attr recordingmode sum
attr source packetLength(packetPulled)
attr title "outgoing packet lengths, sum"
attr unit b
statistic Static.host[0].wlan[0].queue outgoingPacketLengths:histogram
field count 3
field mean 8224
field stddev 0
field min 8224
field max 8224
field sum 24672
field sqrsum 202902528
attr interpolationmode none
attr recordingmode histogram
attr source packetLength(packetPulled)
attr title "outgoing packet lengths"
attr unit b
bin	-inf	0
bin	8223	0
bin	8224	3
bin	8225	0
statistic Static.host[0].wlan[0].queue flowQueueingTime:histogram
field count 0
field mean nan
field stddev nan
field min nan
field max nan
field sum 0
field sqrsum 0
attr interpolationmode none
attr recordingmode histogram
attr source queueingTime(demuxFlow(packetPulled))
attr title "flow queueing times"
attr unit s
bin	-inf	0
bin	0	0
bin	1	0
scalar Static.host[0].wlan[0].queue incomingPackets:count 28
attr recordingmode count
attr source packetPushStarted
attr title "incoming packets, count"
attr unit pk
scalar Static.host[0].wlan[0].queue incomingPacketLengths:sum 230272
attr interpolationmode none
attr recordingmode sum
attr source packetLength(packetPushStarted)
attr title "incoming packet lengths, sum"
attr unit b
statistic Static.host[0].wlan[0].queue incomingPacketLengths:histogram
field count 28
field mean 8224
field stddev 0
field min 8224
field max 8224
field sum 230272
field sqrsum 1893756928
attr interpolationmode none
attr recordingmode histogram
attr source packetLength(packetPushStarted)
attr title "incoming packet lengths"
attr unit b
bin	-inf	0
bin	8223	0
bin	8224	28
bin	8225	0
scalar Static.host[0].wlan[0].queue droppedPacketsQueueOverflow:count 0
attr interpolationmode none
attr recordingmode count
attr source packetDropReasonIsQueueOverflow(packetDropped)
attr title "dropped packets: queue overflow, count"
attr unit pk
scalar Static.host[0].wlan[0].queue droppedPacketLengthsQueueOverflow:sum 0
attr interpolationmode none
attr recordingmode sum
attr source packetLength(packetDropReasonIsQueueOverflow(packetDropped))
attr title "dropped packet lengths: queue overflow, sum"
attr unit b
par Static.host[0].wlan[0].mac typename "\"inet.linklayer.acking.AckingMac\""
par Static.host[0].wlan[0].mac interfaceTableModule "\"Static.host[0].interfaceTable\""
par Static.host[0].wlan[0].mac address "\"auto\""
attr mutable ""
par Static.host[0].wlan[0].mac bitrate 1.1e+07bps
attr unit bps
par Static.host[0].wlan[0].mac mtu 4470B
attr unit B
par Static.host[0].wlan[0].mac headerLength 16B
attr unit B
par Static.host[0].wlan[0].mac promiscuous false
par Static.host[0].wlan[0].mac fullDuplex true
par Static.host[0].wlan[0].mac useAck true
par Static.host[0].wlan[0].mac ackTimeout 0.1s
attr unit s
scalar Static.host[0].wlan[0].mac rcvdPkFromLl:count 102
attr interpolationmode none
attr recordingmode count
attr source packetReceivedFromLower
attr title "packets received from lower layer, count"
scalar Static.host[0].wlan[0].mac rcvdPkFromLl:sum(packetBytes) 105516
attr interpolationmode none
attr recordingmode sum(packetBytes)
attr source packetReceivedFromLower
attr title "packets received from lower layer, sum(packetBytes)"
scalar Static.host[0].wlan[0].mac sentDownPk:count 3
attr interpolationmode none
attr recordingmode count
attr source packetSentToLower
attr title "packets sent to lower layer, count"
scalar Static.host[0].wlan[0].mac sentDownPk:sum(packetBytes) 3132
attr interpolationmode none
attr recordingmode sum(packetBytes)
attr source packetSentToLower
attr title "packets sent to lower layer, sum(packetBytes)"
scalar Static.host[0].wlan[0].mac rcvdPkFromHl:count 0
attr interpolationmode none
attr recordingmode count
attr source packetReceivedFromUpper
attr title "packets received from higher layer, count"
scalar Static.host[0].wlan[0].mac rcvdPkFromHl:sum(packetBytes) 0
attr interpolationmode none
attr recordingmode sum(packetBytes)
attr source packetReceivedFromUpper
attr title "packets received from higher layer, sum(packetBytes)"
scalar Static.host[0].wlan[0].mac passedUpPk:count 14
attr interpolationmode none
attr recordingmode count
attr source packetSentToUpper
attr title "packets passed to higher layer, count"
scalar Static.host[0].wlan[0].mac passedUpPk:sum(packetBytes) 14392
attr interpolationmode none
attr recordingmode sum(packetBytes)
attr source packetSentToUpper
attr title "packets passed to higher layer, sum(packetBytes)"
scalar Static.host[0].wlan[0].mac packetDropIncorrectlyReceived:count 0
attr interpolationmode none
attr recordingmode count
attr source packetDropReasonIsIncorrectlyReceived(packetDropped)
attr title "packet drop: incorrectly received, count"
scalar Static.host[0].wlan[0].mac packetDropIncorrectlyReceived:sum(packetBytes) 0
attr interpolationmode none
attr recordingmode sum(packetBytes)
attr source packetDropReasonIsIncorrectlyReceived(packetDropped)
attr title "packet drop: incorrectly received, sum(packetBytes)"
scalar Static.host[0].wlan[0].mac packetDropInterfaceDown:count 0
attr interpolationmode none
attr recordingmode count
attr source packetDropReasonIsInterfaceDown(packetDropped)
attr title "packet drop: interface down, count"
scalar Static.host[0].wlan[0].mac packetDropInterfaceDown:sum(packetBytes) 0
attr interpolationmode none
attr recordingmode sum(packetBytes)
attr source packetDropReasonIsInterfaceDown(packetDropped)
attr title "packet drop: interface down, sum(packetBytes)"
scalar Static.host[0].wlan[0].mac packetDropNotAddressedToUs:count 88
attr interpolationmode none
attr recordingmode count
attr source packetDropReasonIsNotAddressedToUs(packetDropped)
attr title "packet drop: not addressed to us, count"
scalar Static.host[0].wlan[0].mac packetDropNotAddressedToUs:sum(packetBytes) 90900
attr interpolationmode none
attr recordingmode sum(packetBytes)
attr source packetDropReasonIsNotAddressedToUs(packetDropped)
attr title "packet drop: not addressed to us, sum(packetBytes)"
scalar Static.host[0].wlan[0].mac linkBroken:count 2
attr interpolationmode none
attr recordingmode count
attr source linkBroken
attr title "link break, count"
par Static.host[0].wlan[0].radio.antenna typename "\"inet.physicallayer.wireless.common.antenna.IsotropicAntenna\""
par Static.host[0].wlan[0].radio.antenna mobilityModule "\"^.^.^.mobility\""
par Static.host[0].wlan[0].radio.antenna numAntennas 1
par Static.host[0].wlan[0].radio.transmitter typename "\"inet.physicallayer.wireless.unitdisk.UnitDiskTransmitter\""
par Static.host[0].wlan[0].radio.transmitter preambleDuration 0s
attr unit s
par Static.host[0].wlan[0].radio.transmitter headerLength 96b
attr unit b
par Static.host[0].wlan[0].radio.transmitter bitrate 1.1e+07bps
attr unit bps
par Static.host[0].wlan[0].radio.transmitter communicationRange 500m
attr unit m
par Static.host[0].wlan[0].radio.transmitter interferenceRange 500m
attr unit m
par Static.host[0].wlan[0].radio.transmitter detectionRange 500m
attr unit m
par Static.host[0].wlan[0].radio.receiver typename "\"inet.physicallayer.wireless.unitdisk.UnitDiskReceiver\""
par Static.host[0].wlan[0].radio.receiver ignoreInterference true
par Static.host[0].wlan[0].radio typename "\"inet.physicallayer.wireless.unitdisk.UnitDiskRadio\""
par Static.host[0].wlan[0].radio radioMediumModule "\"radioMedium\""
par Static.host[0].wlan[0].radio energySourceModule "\"\""
par Static.host[0].wlan[0].radio initialRadioMode "\"off\""
attr enum off,sleep,receiver,transmitter,transceiver
par Static.host[0].wlan[0].radio switchingTimes "\"ms 0 0 0 0 0 0 0 0 0 0 0 0 0 0 0 0 0 0 0 0 0 0 0 0 0\""
par Static.host[0].wlan[0].radio sendRawBytes false
par Static.host[0].wlan[0].radio separateTransmissionParts false
par Static.host[0].wlan[0].radio separateReceptionParts false
par Static.host[0].wlan[0].radio displayCommunicationRange false
par Static.host[0].wlan[0].radio displayInterferenceRange false
statistic Static.host[0].wlan[0].radio minSnir:histogram
field count 0
field mean nan
field stddev nan
field min nan
field max nan
field sum 0
field sqrsum 0
attr recordingmode histogram
attr source minimumSnir(packetSentToUpper)
attr title "Min SNIR"
bin	-inf	0
bin	0	0
bin	1	0
statistic Static.host[0].wlan[0].radio packetErrorRate:histogram
field count 102
field mean 0.38235294117647
field stddev 0.48836193458303
field min 0
field max 1
field sum 39
field sqrsum 39
attr recordingmode histogram
attr source packetErrorRate(packetSentToUpper)
attr title "Packet error rate"
bin	-inf	0
bin	0	63
bin	1	39
bin	2	0
statistic Static.host[0].wlan[0].radio bitErrorRate:histogram
field count 102
field mean 0.38235294117647
field stddev 0.48836193458303
field min 0
field max 1
field sum 39
field sqrsum 39
attr recordingmode histogram
attr source bitErrorRate(packetSentToUpper)
attr title "Bit error rate"
bin	-inf	0
bin	0	63
bin	1	39
bin	2	0
statistic Static.host[0].wlan[0].radio symbolErrorRate:histogram
field count 102
field mean 0.38235294117647
field stddev 0.48836193458303
field min 0
field max 1
field sum 39
field sqrsum 39
attr recordingmode histogram
attr source symbolErrorRate(packetSentToUpper)
attr title "Symbol error rate"
bin	-inf	0
bin	0	63
bin	1	39
bin	2	0
scalar Static.host[0].wlan[0].radio transmissionState:count 7
attr interpolationmode sample-hold
attr recordingmode count
attr source transmissionStateChanged
attr title "Radio transmission state, count"
scalar Static.host[0].wlan[0].radio receptionState:count 216
attr interpolationmode sample-hold
attr recordingmode count
attr source receptionStateChanged
attr title "Radio reception state, count"
scalar Static.host[0].wlan[0].radio radioMode:count 3
attr interpolationmode sample-hold
attr recordingmode count
attr source radioModeChanged
attr title "Radio mode, count"
par Static.host[0].wlan[0] typename "\"inet.linklayer.acking.AckingWirelessInterface\""
par Static.host[0].wlan[0] displayStringTextFormat "\"%a (%i)\\n%m\""
par Static.host[0].wlan[0] recordPcap false
par Static.host[0].wlan[0] numPcapRecorders 0
par Static.host[0].wlan[0] interfaceTableModule "\"Static.host[0].interfaceTable\""
par Static.host[0].wlan[0] energySourceModule "\"\""
par Static.host[0].wlan[0] bitrate 1.1e+07bps
attr unit bps
scalar Static.host[0].wlan[0] packetDropInterfaceDown:count 0
attr interpolationmode none
attr recordingmode count
attr source packetDropReasonIsInterfaceDown(packetDropped)
attr title "packet drops: interface down, count"
scalar Static.host[0].wlan[0] packetDropInterfaceDown:sum(packetBytes) 0
attr interpolationmode none
attr recordingmode sum(packetBytes)
attr source packetDropReasonIsInterfaceDown(packetDropped)
attr title "packet drops: interface down, sum(packetBytes)"
scalar Static.host[0].wlan[0] packetDropNoCarrier:count 0
attr interpolationmode none
attr recordingmode count
attr source packetDropReasonIsNoCarrier(packetDropped)
attr title "packet drops: no carrier, count"
scalar Static.host[0].wlan[0] packetDropNoCarrier:sum(packetBytes) 0
attr interpolationmode none
attr recordingmode sum(packetBytes)
attr source packetDropReasonIsNoCarrier(packetDropped)
attr title "packet drops: no carrier, sum(packetBytes)"
par Static.host[0].ipv4.transportIn.channel typename "\"ned.IdealChannel\""
par Static.host[0].ipv4.up.out[0].channel typename "\"ned.IdealChannel\""
par Static.host[0].ipv4.lp.out[2].channel typename "\"ned.IdealChannel\""
par Static.host[0].ipv4.ifIn.channel typename "\"ned.IdealChannel\""
par Static.host[0].ipv4.configurator typename "\"inet.networklayer.configurator.ipv4.Ipv4NodeConfigurator\""
par Static.host[0].ipv4.configurator interfaceTableModule "\"Static.host[0].interfaceTable\""
par Static.host[0].ipv4.configurator routingTableModule "\"Static.host[0].ipv4.routingTable\""
par Static.host[0].ipv4.configurator networkConfiguratorModule "\"configurator\""
par Static.host[0].ipv4.configurator configureRoutingTable true
par Static.host[0].ipv4.routingTable typename "\"inet.networklayer.ipv4.Ipv4RoutingTable\""
par Static.host[0].ipv4.routingTable interfaceTableModule "\"Static.host[0].interfaceTable\""
par Static.host[0].ipv4.routingTable routerId "\"auto\""
par Static.host[0].ipv4.routingTable netmaskRoutes "\"\""
par Static.host[0].ipv4.routingTable forwarding true
par Static.host[0].ipv4.routingTable multicastForwarding false
par Static.host[0].ipv4.routingTable useAdminDist false
par Static.host[0].ipv4.routingTable routingFile "\"\""
par Static.host[0].ipv4.natTable typename "\"inet.networklayer.ipv4.Ipv4NatTable\""
par Static.host[0].ipv4.natTable networkProtocolModule "\"^.ip\""
par Static.host[0].ipv4.natTable config "<config/> at content:1"
par Static.host[0].ipv4.up typename "\"inet.common.MessageDispatcher\""
par Static.host[0].ipv4.up displayStringTextFormat "\"processed %p pk (%l)\""
par Static.host[0].ipv4.up forwardServiceRegistration true
par Static.host[0].ipv4.up forwardProtocolRegistration true
par Static.host[0].ipv4.igmp typename "\"inet.networklayer.ipv4.Igmpv2\""
par Static.host[0].ipv4.igmp interfaceTableModule "\"Static.host[0].interfaceTable\""
par Static.host[0].ipv4.igmp routingTableModule "\"Static.host[0].ipv4.routingTable\""
par Static.host[0].ipv4.igmp crcMode "\"declared\""
attr enum declared,computed
par Static.host[0].ipv4.igmp enabled true
par Static.host[0].ipv4.igmp robustnessVariable 2
par Static.host[0].ipv4.igmp queryInterval 125s
attr unit s
par Static.host[0].ipv4.igmp queryResponseInterval 10s
attr unit s
par Static.host[0].ipv4.igmp groupMembershipInterval 260s
attr unit s
par Static.host[0].ipv4.igmp otherQuerierPresentInterval 255s
attr unit s
par Static.host[0].ipv4.igmp startupQueryInterval 31.25s
attr unit s
par Static.host[0].ipv4.igmp startupQueryCount 2
par Static.host[0].ipv4.igmp lastMemberQueryInterval 1s
attr unit s
par Static.host[0].ipv4.igmp lastMemberQueryCount 2
par Static.host[0].ipv4.igmp unsolicitedReportInterval 10s
attr unit s
par Static.host[0].ipv4.icmp typename "\"inet.networklayer.ipv4.Icmp\""
par Static.host[0].ipv4.icmp interfaceTableModule "\"Static.host[0].interfaceTable\""
par Static.host[0].ipv4.icmp routingTableModule "\"Static.host[0].ipv4.routingTable\""
par Static.host[0].ipv4.icmp crcMode "\"declared\""
attr enum declared,computed
attr mutable ""
par Static.host[0].ipv4.icmp quoteLength 8B
attr mutable ""
attr unit B
par Static.host[0].ipv4.mp typename "\"inet.common.MessageDispatcher\""
par Static.host[0].ipv4.mp displayStringTextFormat "\"processed %p pk (%l)\""
par Static.host[0].ipv4.mp forwardServiceRegistration true
par Static.host[0].ipv4.mp forwardProtocolRegistration true
par Static.host[0].ipv4.ip typename "\"inet.networklayer.ipv4.Ipv4\""
par Static.host[0].ipv4.ip interfaceTableModule "\"Static.host[0].interfaceTable\""
par Static.host[0].ipv4.ip routingTableModule "\"Static.host[0].ipv4.routingTable\""
par Static.host[0].ipv4.ip arpModule "\"Static.host[0].ipv4.arp\""
par Static.host[0].ipv4.ip icmpModule "\"Static.host[0].ipv4.icmp\""
par Static.host[0].ipv4.ip crcMode "\"declared\""
attr enum declared,computed
par Static.host[0].ipv4.ip timeToLive 32
par Static.host[0].ipv4.ip multicastTimeToLive 32
par Static.host[0].ipv4.ip fragmentTimeout 60s
attr unit s
par Static.host[0].ipv4.ip limitedBroadcast false
par Static.host[0].ipv4.ip directBroadcastInterfaces "\"\""
scalar Static.host[0].ipv4.ip packetDropAddressResolutionFailed:count 0
attr interpolationmode none
attr recordingmode count
attr source packetDropReasonIsAddressResolutionFailed(packetDropped)
attr title "packet drop: address resolution failed, count"
scalar Static.host[0].ipv4.ip packetDropAddressResolutionFailed:sum(packetBytes) 0
attr interpolationmode none
attr recordingmode sum(packetBytes)
attr source packetDropReasonIsAddressResolutionFailed(packetDropped)
attr title "packet drop: address resolution failed, sum(packetBytes)"
scalar Static.host[0].ipv4.ip packetDropHopLimitReached:count 0
attr interpolationmode none
attr recordingmode count
attr source packetDropReasonIsHopLimitReached(packetDropped)
attr title "packet drop: hop limit reached, count"
scalar Static.host[0].ipv4.ip packetDropHopLimitReached:sum(packetBytes) 0
attr interpolationmode none
attr recordingmode sum(packetBytes)
attr source packetDropReasonIsHopLimitReached(packetDropped)
attr title "packet drop: hop limit reached, sum(packetBytes)"
scalar Static.host[0].ipv4.ip packetDropForwardingDisabled:count 0
attr interpolationmode none
attr recordingmode count
attr source packetDropReasonIsForwardingDisabled(packetDropped)
attr title "packet drop: forwarding disabled, count"
scalar Static.host[0].ipv4.ip packetDropForwardingDisabled:sum(packetBytes) 0
attr interpolationmode none
attr recordingmode sum(packetBytes)
attr source packetDropReasonIsForwardingDisabled(packetDropped)
attr title "packet drop: forwarding disabled, sum(packetBytes)"
scalar Static.host[0].ipv4.ip packetDropNoInterfaceFound:count 0
attr interpolationmode none
attr recordingmode count
attr source packetDropReasonIsNoInterfaceFound(packetDropped)
attr title "packet drop: no interface found, count"
scalar Static.host[0].ipv4.ip packetDropNoInterfaceFound:sum(packetBytes) 0
attr interpolationmode none
attr recordingmode sum(packetBytes)
attr source packetDropReasonIsNoInterfaceFound(packetDropped)
attr title "packet drop: no interface found, sum(packetBytes)"
scalar Static.host[0].ipv4.ip packetDropNoRouteFound:count 0
attr interpolationmode none
attr recordingmode count
attr source packetDropReasonIsNoRouteFound(packetDropped)
attr title "packet drop: no route found, count"
scalar Static.host[0].ipv4.ip packetDropNoRouteFound:sum(packetBytes) 0
attr interpolationmode none
attr recordingmode sum(packetBytes)
attr source packetDropReasonIsNoRouteFound(packetDropped)
attr title "packet drop: no route found, sum(packetBytes)"
scalar Static.host[0].ipv4.ip packetDropUndefined:count 0
attr interpolationmode none
attr recordingmode count
attr source packetDropReasonIsUndefined(packetDropped)
attr title "packet drop: undefined, count"
scalar Static.host[0].ipv4.ip packetDropUndefined:sum(packetBytes) 0
attr interpolationmode none
attr recordingmode sum(packetBytes)
attr source packetDropReasonIsUndefined(packetDropped)
attr title "packet drop: undefined, sum(packetBytes)"
par Static.host[0].ipv4.arp typename "\"inet.networklayer.arp.ipv4.GlobalArp\""
par Static.host[0].ipv4.arp interfaceTableModule "\"Static.host[0].interfaceTable\""
par Static.host[0].ipv4.arp addressType "\"ipv4\""
attr enum ipv4,ipv6,mac,moduleid,modulepath
par Static.host[0].ipv4.lp typename "\"inet.common.MessageDispatcher\""
par Static.host[0].ipv4.lp displayStringTextFormat "\"processed %p pk (%l)\""
par Static.host[0].ipv4.lp forwardServiceRegistration true
par Static.host[0].ipv4.lp forwardProtocolRegistration true
par Static.host[0].ipv4 typename "\"inet.networklayer.ipv4.Ipv4NetworkLayer\""
par Static.host[0].ipv4 forwarding true
par Static.host[0].ipv4 multicastForwarding false
par Static.host[0].ipv4 interfaceTableModule "\"Static.host[0].interfaceTable\""
par Static.host[0].ipv4 displayStringTextFormat "\"%i\""
par Static.host[0].nl typename "\"inet.common.MessageDispatcher\""
par Static.host[0].nl displayStringTextFormat "\"processed %p pk (%l)\""
par Static.host[0].nl forwardServiceRegistration true
par Static.host[0].nl forwardProtocolRegistration true
par Static.host[0].udp typename "\"inet.transportlayer.udp.Udp\""
par Static.host[0].udp interfaceTableModule "\"Static.host[0].interfaceTable\""
par Static.host[0].udp icmpModule "\"^.ipv4.icmp\""
par Static.host[0].udp icmpv6Module "\"^.ipv6.icmpv6\""
par Static.host[0].udp crcMode "\"declared\""
attr enum disabled,declared,computed
par Static.host[0].udp defaultMulticastLoop true
scalar Static.host[0].udp packetReceived:count 0
attr interpolationmode none
attr recordingmode count
attr source packetReceived
attr title "packets received, count"
scalar Static.host[0].udp packetReceived:sum(packetBytes) 0
attr interpolationmode none
attr recordingmode sum(packetBytes)
attr source packetReceived
attr title "packets received, sum(packetBytes)"
scalar Static.host[0].udp packetSent:count 14
attr interpolationmode none
attr recordingmode count
attr source packetSent
attr title "packets sent, count"
scalar Static.host[0].udp packetSent:sum(packetBytes) 14112
attr interpolationmode none
attr recordingmode sum(packetBytes)
attr source packetSent
attr title "packets sent, sum(packetBytes)"
scalar Static.host[0].udp passedUpPk:count 0
attr interpolationmode none
attr recordingmode count
attr source packetSentToUpper
attr title "packets passed up, count"
scalar Static.host[0].udp droppedPkWrongPort:count 0
attr interpolationmode none
attr recordingmode count
attr source packetDropReasonIsNoPortFound(packetDropped)
[...]
par Static.host[24].wlan[0].radio.antenna mobilityModule "\"^.^.^.mobility\""
par Static.host[24].wlan[0].radio.antenna numAntennas 1
par Static.host[24].wlan[0].radio.transmitter typename "\"inet.physicallayer.wireless.unitdisk.UnitDiskTransmitter\""
par Static.host[24].wlan[0].radio.transmitter preambleDuration 0s
attr unit s
par Static.host[24].wlan[0].radio.transmitter headerLength 96b
attr unit b
par Static.host[24].wlan[0].radio.transmitter bitrate 1.1e+07bps
attr unit bps
par Static.host[24].wlan[0].radio.transmitter communicationRange 500m
attr unit m
par Static.host[24].wlan[0].radio.transmitter interferenceRange 500m
attr unit m
par Static.host[24].wlan[0].radio.transmitter detectionRange 500m
attr unit m
par Static.host[24].wlan[0].radio.receiver typename "\"inet.physicallayer.wireless.unitdisk.UnitDiskReceiver\""
par Static.host[24].wlan[0].radio.receiver ignoreInterference true
par Static.host[24].wlan[0].radio typename "\"inet.physicallayer.wireless.unitdisk.UnitDiskRadio\""
par Static.host[24].wlan[0].radio radioMediumModule "\"radioMedium\""
par Static.host[24].wlan[0].radio energySourceModule "\"\""
par Static.host[24].wlan[0].radio initialRadioMode "\"off\""
attr enum off,sleep,receiver,transmitter,transceiver
par Static.host[24].wlan[0].radio switchingTimes "\"ms 0 0 0 0 0 0 0 0 0 0 0 0 0 0 0 0 0 0 0 0 0 0 0 0 0\""
par Static.host[24].wlan[0].radio sendRawBytes false
par Static.host[24].wlan[0].radio separateTransmissionParts false
par Static.host[24].wlan[0].radio separateReceptionParts false
par Static.host[24].wlan[0].radio displayCommunicationRange false
par Static.host[24].wlan[0].radio displayInterferenceRange false
statistic Static.host[24].wlan[0].radio minSnir:histogram
field count 0
field mean nan
field stddev nan
field min nan
field max nan
field sum 0
field sqrsum 0
attr recordingmode histogram
attr source minimumSnir(packetSentToUpper)
attr title "Min SNIR"
bin	-inf	0
bin	0	0
bin	1	0
statistic Static.host[24].wlan[0].radio packetErrorRate:histogram
field count 114
field mean 0.43859649122807
field stddev 0.49840609165616
field min 0
field max 1
field sum 50
field sqrsum 50
attr recordingmode histogram
attr source packetErrorRate(packetSentToUpper)
attr title "Packet error rate"
bin	-inf	0
bin	0	64
bin	1	50
bin	2	0
statistic Static.host[24].wlan[0].radio bitErrorRate:histogram
field count 114
field mean 0.43859649122807
field stddev 0.49840609165616
field min 0
field max 1
field sum 50
field sqrsum 50
attr recordingmode histogram
attr source bitErrorRate(packetSentToUpper)
attr title "Bit error rate"
bin	-inf	0
bin	0	64
bin	1	50
bin	2	0
statistic Static.host[24].wlan[0].radio symbolErrorRate:histogram
field count 114
field mean 0.43859649122807
field stddev 0.49840609165616
field min 0
field max 1
field sum 50
field sqrsum 50
attr recordingmode histogram
attr source symbolErrorRate(packetSentToUpper)
attr title "Symbol error rate"
bin	-inf	0
bin	0	64
bin	1	50
bin	2	0
scalar Static.host[24].wlan[0].radio transmissionState:count 7
attr interpolationmode sample-hold
attr recordingmode count
attr source transmissionStateChanged
attr title "Radio transmission state, count"
scalar Static.host[24].wlan[0].radio receptionState:count 237
attr interpolationmode sample-hold
attr recordingmode count
attr source receptionStateChanged
attr title "Radio reception state, count"
scalar Static.host[24].wlan[0].radio radioMode:count 3
attr interpolationmode sample-hold
attr recordingmode count
attr source radioModeChanged
attr title "Radio mode, count"
par Static.host[24].wlan[0] typename "\"inet.linklayer.acking.AckingWirelessInterface\""
par Static.host[24].wlan[0] displayStringTextFormat "\"%a (%i)\\n%m\""
par Static.host[24].wlan[0] recordPcap false
par Static.host[24].wlan[0] numPcapRecorders 0
par Static.host[24].wlan[0] interfaceTableModule "\"Static.host[24].interfaceTable\""
par Static.host[24].wlan[0] energySourceModule "\"\""
par Static.host[24].wlan[0] bitrate 1.1e+07bps
attr unit bps
scalar Static.host[24].wlan[0] packetDropInterfaceDown:count 0
attr interpolationmode none
attr recordingmode count
attr source packetDropReasonIsInterfaceDown(packetDropped)
attr title "packet drops: interface down, count"
scalar Static.host[24].wlan[0] packetDropInterfaceDown:sum(packetBytes) 0
attr interpolationmode none
attr recordingmode sum(packetBytes)
attr source packetDropReasonIsInterfaceDown(packetDropped)
attr title "packet drops: interface down, sum(packetBytes)"
scalar Static.host[24].wlan[0] packetDropNoCarrier:count 0
attr interpolationmode none
attr recordingmode count
attr source packetDropReasonIsNoCarrier(packetDropped)
attr title "packet drops: no carrier, count"
scalar Static.host[24].wlan[0] packetDropNoCarrier:sum(packetBytes) 0
attr interpolationmode none
attr recordingmode sum(packetBytes)
attr source packetDropReasonIsNoCarrier(packetDropped)
attr title "packet drops: no carrier, sum(packetBytes)"
par Static.host[24].ipv4.transportIn.channel typename "\"ned.IdealChannel\""
par Static.host[24].ipv4.up.out[0].channel typename "\"ned.IdealChannel\""
par Static.host[24].ipv4.lp.out[2].channel typename "\"ned.IdealChannel\""
par Static.host[24].ipv4.ifIn.channel typename "\"ned.IdealChannel\""
par Static.host[24].ipv4.configurator typename "\"inet.networklayer.configurator.ipv4.Ipv4NodeConfigurator\""
par Static.host[24].ipv4.configurator interfaceTableModule "\"Static.host[24].interfaceTable\""
par Static.host[24].ipv4.configurator routingTableModule "\"Static.host[24].ipv4.routingTable\""
par Static.host[24].ipv4.configurator networkConfiguratorModule "\"configurator\""
par Static.host[24].ipv4.configurator configureRoutingTable true
par Static.host[24].ipv4.routingTable typename "\"inet.networklayer.ipv4.Ipv4RoutingTable\""
par Static.host[24].ipv4.routingTable interfaceTableModule "\"Static.host[24].interfaceTable\""
par Static.host[24].ipv4.routingTable routerId "\"auto\""
par Static.host[24].ipv4.routingTable netmaskRoutes "\"\""
par Static.host[24].ipv4.routingTable forwarding true
par Static.host[24].ipv4.routingTable multicastForwarding false
par Static.host[24].ipv4.routingTable useAdminDist false
par Static.host[24].ipv4.routingTable routingFile "\"\""
par Static.host[24].ipv4.natTable typename "\"inet.networklayer.ipv4.Ipv4NatTable\""
par Static.host[24].ipv4.natTable networkProtocolModule "\"^.ip\""
par Static.host[24].ipv4.natTable config "<config/> at content:1"
par Static.host[24].ipv4.up typename "\"inet.common.MessageDispatcher\""
par Static.host[24].ipv4.up displayStringTextFormat "\"processed %p pk (%l)\""
par Static.host[24].ipv4.up forwardServiceRegistration true
par Static.host[24].ipv4.up forwardProtocolRegistration true
par Static.host[24].ipv4.igmp typename "\"inet.networklayer.ipv4.Igmpv2\""
par Static.host[24].ipv4.igmp interfaceTableModule "\"Static.host[24].interfaceTable\""
par Static.host[24].ipv4.igmp routingTableModule "\"Static.host[24].ipv4.routingTable\""
par Static.host[24].ipv4.igmp crcMode "\"declared\""
attr enum declared,computed
par Static.host[24].ipv4.igmp enabled true
par Static.host[24].ipv4.igmp robustnessVariable 2
par Static.host[24].ipv4.igmp queryInterval 125s
attr unit s
par Static.host[24].ipv4.igmp queryResponseInterval 10s
attr unit s
par Static.host[24].ipv4.igmp groupMembershipInterval 260s
attr unit s
par Static.host[24].ipv4.igmp otherQuerierPresentInterval 255s
attr unit s
par Static.host[24].ipv4.igmp startupQueryInterval 31.25s
attr unit s
par Static.host[24].ipv4.igmp startupQueryCount 2
par Static.host[24].ipv4.igmp lastMemberQueryInterval 1s
attr unit s
par Static.host[24].ipv4.igmp lastMemberQueryCount 2
par Static.host[24].ipv4.igmp unsolicitedReportInterval 10s
attr unit s
par Static.host[24].ipv4.icmp typename "\"inet.networklayer.ipv4.Icmp\""
par Static.host[24].ipv4.icmp interfaceTableModule "\"Static.host[24].interfaceTable\""
par Static.host[24].ipv4.icmp routingTableModule "\"Static.host[24].ipv4.routingTable\""
par Static.host[24].ipv4.icmp crcMode "\"declared\""
attr enum declared,computed
attr mutable ""
par Static.host[24].ipv4.icmp quoteLength 8B
attr mutable ""
attr unit B
par Static.host[24].ipv4.mp typename "\"inet.common.MessageDispatcher\""
par Static.host[24].ipv4.mp displayStringTextFormat "\"processed %p pk (%l)\""
par Static.host[24].ipv4.mp forwardServiceRegistration true
par Static.host[24].ipv4.mp forwardProtocolRegistration true
par Static.host[24].ipv4.ip typename "\"inet.networklayer.ipv4.Ipv4\""
par Static.host[24].ipv4.ip interfaceTableModule "\"Static.host[24].interfaceTable\""
par Static.host[24].ipv4.ip routingTableModule "\"Static.host[24].ipv4.routingTable\""
par Static.host[24].ipv4.ip arpModule "\"Static.host[24].ipv4.arp\""
par Static.host[24].ipv4.ip icmpModule "\"Static.host[24].ipv4.icmp\""
par Static.host[24].ipv4.ip crcMode "\"declared\""
attr enum declared,computed
par Static.host[24].ipv4.ip timeToLive 32
par Static.host[24].ipv4.ip multicastTimeToLive 32
par Static.host[24].ipv4.ip fragmentTimeout 60s
attr unit s
par Static.host[24].ipv4.ip limitedBroadcast false
par Static.host[24].ipv4.ip directBroadcastInterfaces "\"\""
scalar Static.host[24].ipv4.ip packetDropAddressResolutionFailed:count 0
attr interpolationmode none
attr recordingmode count
attr source packetDropReasonIsAddressResolutionFailed(packetDropped)
attr title "packet drop: address resolution failed, count"
scalar Static.host[24].ipv4.ip packetDropAddressResolutionFailed:sum(packetBytes) 0
attr interpolationmode none
attr recordingmode sum(packetBytes)
attr source packetDropReasonIsAddressResolutionFailed(packetDropped)
attr title "packet drop: address resolution failed, sum(packetBytes)"
scalar Static.host[24].ipv4.ip packetDropHopLimitReached:count 0
attr interpolationmode none
attr recordingmode count
attr source packetDropReasonIsHopLimitReached(packetDropped)
attr title "packet drop: hop limit reached, count"
scalar Static.host[24].ipv4.ip packetDropHopLimitReached:sum(packetBytes) 0
attr interpolationmode none
attr recordingmode sum(packetBytes)
attr source packetDropReasonIsHopLimitReached(packetDropped)
attr title "packet drop: hop limit reached, sum(packetBytes)"
scalar Static.host[24].ipv4.ip packetDropForwardingDisabled:count 0
attr interpolationmode none
attr recordingmode count
attr source packetDropReasonIsForwardingDisabled(packetDropped)
attr title "packet drop: forwarding disabled, count"
scalar Static.host[24].ipv4.ip packetDropForwardingDisabled:sum(packetBytes) 0
attr interpolationmode none
attr recordingmode sum(packetBytes)
attr source packetDropReasonIsForwardingDisabled(packetDropped)
attr title "packet drop: forwarding disabled, sum(packetBytes)"
scalar Static.host[24].ipv4.ip packetDropNoInterfaceFound:count 0
attr interpolationmode none
attr recordingmode count
attr source packetDropReasonIsNoInterfaceFound(packetDropped)
attr title "packet drop: no interface found, count"
scalar Static.host[24].ipv4.ip packetDropNoInterfaceFound:sum(packetBytes) 0
attr interpolationmode none
attr recordingmode sum(packetBytes)
attr source packetDropReasonIsNoInterfaceFound(packetDropped)
attr title "packet drop: no interface found, sum(packetBytes)"
scalar Static.host[24].ipv4.ip packetDropNoRouteFound:count 0
attr interpolationmode none
attr recordingmode count
attr source packetDropReasonIsNoRouteFound(packetDropped)
attr title "packet drop: no route found, count"
scalar Static.host[24].ipv4.ip packetDropNoRouteFound:sum(packetBytes) 0
attr interpolationmode none
attr recordingmode sum(packetBytes)
attr source packetDropReasonIsNoRouteFound(packetDropped)
attr title "packet drop: no route found, sum(packetBytes)"
scalar Static.host[24].ipv4.ip packetDropUndefined:count 0
attr interpolationmode none
attr recordingmode count
attr source packetDropReasonIsUndefined(packetDropped)
attr title "packet drop: undefined, count"
scalar Static.host[24].ipv4.ip packetDropUndefined:sum(packetBytes) 0
attr interpolationmode none
attr recordingmode sum(packetBytes)
attr source packetDropReasonIsUndefined(packetDropped)
attr title "packet drop: undefined, sum(packetBytes)"
par Static.host[24].ipv4.arp typename "\"inet.networklayer.arp.ipv4.GlobalArp\""
par Static.host[24].ipv4.arp interfaceTableModule "\"Static.host[24].interfaceTable\""
par Static.host[24].ipv4.arp addressType "\"ipv4\""
attr enum ipv4,ipv6,mac,moduleid,modulepath
par Static.host[24].ipv4.lp typename "\"inet.common.MessageDispatcher\""
par Static.host[24].ipv4.lp displayStringTextFormat "\"processed %p pk (%l)\""
par Static.host[24].ipv4.lp forwardServiceRegistration true
par Static.host[24].ipv4.lp forwardProtocolRegistration true
par Static.host[24].ipv4 typename "\"inet.networklayer.ipv4.Ipv4NetworkLayer\""
par Static.host[24].ipv4 forwarding true
par Static.host[24].ipv4 multicastForwarding false
par Static.host[24].ipv4 interfaceTableModule "\"Static.host[24].interfaceTable\""
par Static.host[24].ipv4 displayStringTextFormat "\"%i\""
par Static.host[24].nl typename "\"inet.common.MessageDispatcher\""
par Static.host[24].nl displayStringTextFormat "\"processed %p pk (%l)\""
par Static.host[24].nl forwardServiceRegistration true
par Static.host[24].nl forwardProtocolRegistration true
par Static.host[24].udp typename "\"inet.transportlayer.udp.Udp\""
par Static.host[24].udp interfaceTableModule "\"Static.host[24].interfaceTable\""
par Static.host[24].udp icmpModule "\"^.ipv4.icmp\""
par Static.host[24].udp icmpv6Module "\"^.ipv6.icmpv6\""
par Static.host[24].udp crcMode "\"declared\""
attr enum disabled,declared,computed
par Static.host[24].udp defaultMulticastLoop true
scalar Static.host[24].udp packetReceived:count 130
attr interpolationmode none
attr recordingmode count
attr source packetReceived
attr title "packets received, count"
scalar Static.host[24].udp packetReceived:sum(packetBytes) 131040
attr interpolationmode none
attr recordingmode sum(packetBytes)
attr source packetReceived
attr title "packets received, sum(packetBytes)"
scalar Static.host[24].udp packetSent:count 16
attr interpolationmode none
attr recordingmode count
attr source packetSent
attr title "packets sent, count"
scalar Static.host[24].udp packetSent:sum(packetBytes) 16128
attr interpolationmode none
attr recordingmode sum(packetBytes)
attr source packetSent
attr title "packets sent, sum(packetBytes)"
scalar Static.host[24].udp passedUpPk:count 127
attr interpolationmode none
attr recordingmode count
attr source packetSentToUpper
attr title "packets passed up, count"
scalar Static.host[24].udp droppedPkWrongPort:count 3
attr interpolationmode none
attr recordingmode count
attr source packetDropReasonIsNoPortFound(packetDropped)
attr title "packets dropped (wrong port), count"
scalar Static.host[24].udp droppedPkBadChecksum:count 0
attr interpolationmode none
attr recordingmode count
attr source packetDropReasonIsIncorrectlyReceived(packetDropped)
attr title "packets dropped (checksum error), count"
par Static.host[24].tcp typename "\"inet.transportlayer.tcp.Tcp\""
par Static.host[24].tcp crcMode "\"declared\""
attr enum declared,computed
par Static.host[24].tcp advertisedWindow 7504
par Static.host[24].tcp delayedAcksEnabled false
par Static.host[24].tcp nagleEnabled true
par Static.host[24].tcp limitedTransmitEnabled false
par Static.host[24].tcp increasedIWEnabled false
par Static.host[24].tcp sackSupport false
par Static.host[24].tcp windowScalingSupport false
par Static.host[24].tcp windowScalingFactor -1
par Static.host[24].tcp timestampSupport false
par Static.host[24].tcp mss 536
par Static.host[24].tcp msl 120s
attr unit s
par Static.host[24].tcp tcpAlgorithmClass "\"TcpReno\""
attr enum TcpVegas,TcpWestwood,TcpNewReno,TcpReno,TcpTahoe,TcpNoCongestionControl
par Static.host[24].tcp useDataNotification false
par Static.host[24].tcp dupthresh 3
par Static.host[24].tcp initialSsthresh 4294967295
par Static.host[24].tcp stopOperationExtraTime 0s
attr unit s
par Static.host[24].tcp stopOperationTimeout 2s
attr unit s
par Static.host[24].tcp ecnWillingness false
par Static.host[24].tcp dctcpGamma 0.0625
par Static.host[24].tn typename "\"inet.common.MessageDispatcher\""
par Static.host[24].tn displayStringTextFormat "\"processed %p pk (%l)\""
par Static.host[24].tn forwardServiceRegistration true
par Static.host[24].tn forwardProtocolRegistration true
par Static.host[24].app[0] typename "\"inet.applications.udpapp.UdpBasicApp\""
par Static.host[24].app[0] interfaceTableModule "\"Static.host[24].interfaceTable\""
par Static.host[24].app[0] clockModule "\"\""
par Static.host[24].app[0] localPort 5000
par Static.host[24].app[0] destAddresses "\"host[24]\""
par Static.host[24].app[0] localAddress "\"\""
par Static.host[24].app[0] packetName "\"UDPData\""
par Static.host[24].app[0] destPort 5000
par Static.host[24].app[0] messageLength 1000B
attr unit B
par Static.host[24].app[0] startTime 0.00471735s
attr unit s
par Static.host[24].app[0] stopTime -1s
attr unit s
par Static.host[24].app[0] sendInterval exponential(12ms)
attr unit s
par Static.host[24].app[0] timeToLive -1
par Static.host[24].app[0] dontFragment false
par Static.host[24].app[0] dscp -1
par Static.host[24].app[0] tos -1
par Static.host[24].app[0] multicastInterface "\"\""
par Static.host[24].app[0] receiveBroadcast false
par Static.host[24].app[0] joinLocalMulticastGroups false
par Static.host[24].app[0] stopOperationExtraTime -1s
attr unit s
par Static.host[24].app[0] stopOperationTimeout 2s
attr unit s
scalar Static.host[24].app[0] "packets sent" 16
scalar Static.host[24].app[0] "packets received" 127
scalar Static.host[24].app[0] packetReceived:count 127
attr interpolationmode none
attr recordingmode count
attr source packetReceived
attr title "packets received, count"
scalar Static.host[24].app[0] packetReceived:sum(packetBytes) 127000
attr interpolationmode none
attr recordingmode sum(packetBytes)
attr source packetReceived
attr title "packets received, sum(packetBytes)"
statistic Static.host[24].app[0] rcvdPkLifetime:stats
field count 127
field mean 0.034164700497843
field stddev 0.039156849316787
field min 0
field max 0.162811596564
field sum 4.338916963226
field sqrsum 0.34142841343424
attr interpolationmode none
attr recordingmode stats
attr source dataAge(packetReceived)
attr title "received packet lifetime"
attr unit s
scalar Static.host[24].app[0] packetSent:count 16
attr interpolationmode none
attr recordingmode count
attr source packetSent
attr title "packets sent, count"
scalar Static.host[24].app[0] packetSent:sum(packetBytes) 16000
attr interpolationmode none
attr recordingmode sum(packetBytes)
attr source packetSent
attr title "packets sent, sum(packetBytes)"
par Static.host[24].at typename "\"inet.common.MessageDispatcher\""
par Static.host[24].at displayStringTextFormat "\"processed %p pk (%l)\""
par Static.host[24].at forwardServiceRegistration true
par Static.host[24].at forwardProtocolRegistration true
par Static.host[24] typename "\"inet.node.inet.WirelessHost\""
par Static.host[24] hasStatus false
par Static.host[24] osgModel "\"\""
par Static.host[24] osgModelColor "\"\""
par Static.host[24] canvasImage "\"\""
par Static.host[24] canvasImageColor "\"\""
par Static.host[24] recordPcap false
par Static.host[24] numPcapRecorders 0
par Static.host[24] numLoInterfaces 1
par Static.host[24] numWlanInterfaces 1
par Static.host[24] numEthInterfaces 0
par Static.host[24] numPppInterfaces 0
par Static.host[24] numTunInterfaces 0
par Static.host[24] numVirtInterfaces 0
par Static.host[24] fcsMode "\"declared\""
attr enum declared,computed
par Static.host[24] hasIpv4 true
par Static.host[24] hasIpv6 false
par Static.host[24] hasGn false
par Static.host[24] forwarding true
par Static.host[24] multicastForwarding false
par Static.host[24] hasUdp true
par Static.host[24] hasTcp true
par Static.host[24] hasSctp false
par Static.host[24] numApps 1
par Static typename "\"Static\""
par Static numHosts 25

